
     RDKit          2D

  7  6  0  0  0  0  0  0  0  0999 V2000
   -2.5981    0.8571    0.0000 R   0  0  0  0  0  1  0  0  0  0  0  0
   -1.2990    0.1071    0.0000 N   0  0  0  0  0  0  0  0  0  0  0  0
   -1.2990   -1.3929    0.0000 R   0  0  0  0  0  1  0  0  0  0  0  0
    0.0000    0.8571    0.0000 C   0  0  0  0  0  0  0  0  0  0  0  0
    1.2990    0.1071    0.0000 C   0  0  0  0  0  0  0  0  0  0  0  0
    2.5981    0.8571    0.0000 R   0  0  0  0  0  1  0  0  0  0  0  0
    1.2990   -1.3929    0.0000 O   0  0  0  0  0  0  0  0  0  0  0  0
  1  2  1  0
  2  3  1  0
  2  4  1  0
  4  5  1  0
  5  6  1  0
  5  7  2  0
M  ISO  3   1   1   3   3   6   2
M  END
>  <symbol>  (1) 
G

>  <m_abbr>  (1) 
G

>  <m_name>  (1) 
Glycine

>  <m_type>  (1) 
aa

>  <m_subtype>  (1) 
natural

>  <m_Rgroups>  (1) 
[H],[OH],[H]

>  <m_chem_types>  (1) 
1:backbone_n,2:backbone_c,3:backbone_n_mod

>  <m_activation_policy>  (1) 
canonical-sites-v1

$$$$

     RDKit          2D

  8  7  0  0  0  0  0  0  0  0999 V2000
   -1.2990    1.6875    0.0000 R   0  0  0  0  0  1  0  0  0  0  0  0
   -1.2990    0.1875    0.0000 N   0  0  0  0  0  0  0  0  0  0  0  0
   -2.5981   -0.5625    0.0000 R   0  0  0  0  0  1  0  0  0  0  0  0
    0.0000   -0.5625    0.0000 C   0  0  0  0  0  0  0  0  0  0  0  0
    0.0000   -2.0625    0.0000 C   0  0  0  0  0  0  0  0  0  0  0  0
    1.2990    0.1875    0.0000 C   0  0  0  0  0  0  0  0  0  0  0  0
    2.5981   -0.5625    0.0000 R   0  0  0  0  0  1  0  0  0  0  0  0
    1.2990    1.6875    0.0000 O   0  0  0  0  0  0  0  0  0  0  0  0
  1  2  1  0
  2  3  1  0
  2  4  1  0
  4  5  1  6
  4  6  1  0
  6  7  1  0
  6  8  2  0
M  ISO  3   1   1   3   3   7   2
M  END
>  <symbol>  (2) 
A

>  <m_abbr>  (2) 
A

>  <m_name>  (2) 
L-Alanine

>  <m_type>  (2) 
aa

>  <m_subtype>  (2) 
natural

>  <m_Rgroups>  (2) 
[H],[OH],[H]

>  <m_chem_types>  (2) 
1:backbone_n,2:backbone_c,3:backbone_n_mod

>  <m_activation_policy>  (2) 
canonical-sites-v1

$$$$

     RDKit          2D

 10  9  0  0  0  0  0  0  0  0999 V2000
   -1.2990   -2.2500    0.0000 R   0  0  0  0  0  1  0  0  0  0  0  0
    0.0000   -1.5000    0.0000 N   0  0  0  0  0  0  0  0  0  0  0  0
    1.2990   -2.2500    0.0000 R   0  0  0  0  0  1  0  0  0  0  0  0
    0.0000    0.0000    0.0000 C   0  0  0  0  0  0  0  0  0  0  0  0
   -1.2990    0.7500    0.0000 C   0  0  0  0  0  0  0  0  0  0  0  0
   -1.2990    2.2500    0.0000 R   0  0  0  0  0  1  0  0  0  0  0  0
   -2.5981   -0.0000    0.0000 O   0  0  0  0  0  0  0  0  0  0  0  0
    1.2990    0.7500    0.0000 C   0  0  0  0  0  0  0  0  0  0  0  0
    1.2990    2.2500    0.0000 C   0  0  0  0  0  0  0  0  0  0  0  0
    2.5981    0.0000    0.0000 C   0  0  0  0  0  0  0  0  0  0  0  0
  1  2  1  0
  2  3  1  0
  2  4  1  0
  4  5  1  0
  5  6  1  0
  5  7  2  0
  4  8  1  6
  8  9  1  0
  8 10  1  0
M  ISO  3   1   1   3   3   6   2
M  END
>  <symbol>  (3) 
V

>  <m_abbr>  (3) 
V

>  <m_name>  (3) 
L-Valine

>  <m_type>  (3) 
aa

>  <m_subtype>  (3) 
natural

>  <m_Rgroups>  (3) 
[H],[OH],[H]

>  <m_chem_types>  (3) 
1:backbone_n,2:backbone_c,3:backbone_n_mod

>  <m_activation_policy>  (3) 
canonical-sites-v1

$$$$

     RDKit          2D

 11 10  0  0  0  0  0  0  0  0999 V2000
   -3.0813    0.0866    0.0000 R   0  0  0  0  0  1  0  0  0  0  0  0
   -1.8784   -0.8095    0.0000 N   0  0  0  0  0  0  0  0  0  0  0  0
   -2.0531   -2.2993    0.0000 R   0  0  0  0  0  1  0  0  0  0  0  0
   -0.5009   -0.2159    0.0000 C   0  0  0  0  0  0  0  0  0  0  0  0
    0.7020   -1.1120    0.0000 C   0  0  0  0  0  0  0  0  0  0  0  0
    2.0795   -0.5184    0.0000 C   0  0  0  0  0  0  0  0  0  0  0  0
    3.2824   -1.4145    0.0000 C   0  0  0  0  0  0  0  0  0  0  0  0
    2.2541    0.9714    0.0000 C   0  0  0  0  0  0  0  0  0  0  0  0
   -0.3263    1.2739    0.0000 C   0  0  0  0  0  0  0  0  0  0  0  0
    1.0513    1.8676    0.0000 R   0  0  0  0  0  1  0  0  0  0  0  0
   -1.5291    2.1701    0.0000 O   0  0  0  0  0  0  0  0  0  0  0  0
  1  2  1  0
  2  3  1  0
  2  4  1  0
  4  5  1  6
  5  6  1  0
  6  7  1  0
  6  8  1  0
  4  9  1  0
  9 10  1  0
  9 11  2  0
M  ISO  3   1   1   3   3  10   2
M  END
>  <symbol>  (4) 
L

>  <m_abbr>  (4) 
L

>  <m_name>  (4) 
L-Leucine

>  <m_type>  (4) 
aa

>  <m_subtype>  (4) 
natural

>  <m_Rgroups>  (4) 
[H],[OH],[H]

>  <m_chem_types>  (4) 
1:backbone_n,2:backbone_c,3:backbone_n_mod

>  <m_activation_policy>  (4) 
canonical-sites-v1

$$$$

     RDKit          2D

 11 10  0  0  0  0  0  0  0  0999 V2000
   -2.0616   -1.9640    0.0000 R   0  0  0  0  0  1  0  0  0  0  0  0
   -0.6443   -1.4730    0.0000 N   0  0  0  0  0  0  0  0  0  0  0  0
    0.4896   -2.4550    0.0000 R   0  0  0  0  0  1  0  0  0  0  0  0
   -0.3608    0.0000    0.0000 C   0  0  0  0  0  0  0  0  0  0  0  0
   -1.4947    0.9820    0.0000 C   0  0  0  0  0  0  0  0  0  0  0  0
   -1.2112    2.4550    0.0000 R   0  0  0  0  0  1  0  0  0  0  0  0
   -2.9120    0.4910    0.0000 O   0  0  0  0  0  0  0  0  0  0  0  0
    1.0566    0.4910    0.0000 C   0  0  0  0  0  0  0  0  0  0  0  0
    1.3401    1.9640    0.0000 C   0  0  0  0  0  0  0  0  0  0  0  0
    2.1905   -0.4910    0.0000 C   0  0  0  0  0  0  0  0  0  0  0  0
    3.6078   -0.0000    0.0000 C   0  0  0  0  0  0  0  0  0  0  0  0
  1  2  1  0
  2  3  1  0
  4  2  1  6
  4  5  1  0
  5  6  1  0
  5  7  2  0
  4  8  1  0
  8  9  1  1
  8 10  1  0
 10 11  1  0
M  ISO  3   1   1   3   3   6   2
M  END
>  <symbol>  (5) 
I

>  <m_abbr>  (5) 
I

>  <m_name>  (5) 
L-Isoleucine

>  <m_type>  (5) 
aa

>  <m_subtype>  (5) 
natural

>  <m_Rgroups>  (5) 
[H],[OH],[H]

>  <m_chem_types>  (5) 
1:backbone_n,2:backbone_c,3:backbone_n_mod

>  <m_activation_policy>  (5) 
canonical-sites-v1

$$$$

     RDKit          2D

  9  9  0  0  0  0  0  0  0  0999 V2000
    0.5115   -2.3139    0.0000 R   0  0  0  0  0  1  0  0  0  0  0  0
    0.8624   -0.8555    0.0000 N   0  0  0  0  0  0  0  0  0  0  0  0
    2.2485   -0.2821    0.0000 C   0  0  0  0  0  0  0  0  0  0  0  0
    2.1314    1.2133    0.0000 C   0  0  0  0  0  0  0  0  0  0  0  0
    0.6730    1.5641    0.0000 C   0  0  0  0  0  0  0  0  0  0  0  0
   -0.1113    0.2855    0.0000 C   0  0  0  0  0  0  0  0  0  0  0  0
   -1.6067    0.1685    0.0000 C   0  0  0  0  0  0  0  0  0  0  0  0
   -2.4558    1.4051    0.0000 R   0  0  0  0  0  1  0  0  0  0  0  0
   -2.2531   -1.1851    0.0000 O   0  0  0  0  0  0  0  0  0  0  0  0
  1  2  1  0
  2  3  1  0
  3  4  1  0
  4  5  1  0
  5  6  1  0
  6  7  1  6
  7  8  1  0
  7  9  2  0
  6  2  1  0
M  ISO  2   1   1   8   2
M  END
>  <symbol>  (6) 
P

>  <m_abbr>  (6) 
P

>  <m_name>  (6) 
L-Proline

>  <m_type>  (6) 
aa

>  <m_subtype>  (6) 
natural

>  <m_Rgroups>  (6) 
[H],[OH]

>  <m_chem_types>  (6) 
1:backbone_n,2:backbone_c

>  <m_activation_policy>  (6) 
canonical-sites-v1

$$$$

     RDKit          2D

 14 14  0  0  0  0  0  0  0  0999 V2000
   -2.3413    2.2101    0.0000 R   0  0  0  0  0  1  0  0  0  0  0  0
   -1.1930    1.2450    0.0000 N   0  0  0  0  0  0  0  0  0  0  0  0
    0.2170    1.7569    0.0000 R   0  0  0  0  0  1  0  0  0  0  0  0
   -1.4546   -0.2320    0.0000 C   0  0  0  0  0  0  0  0  0  0  0  0
   -0.3063   -1.1971    0.0000 C   0  0  0  0  0  0  0  0  0  0  0  0
    1.1037   -0.6851    0.0000 C   0  0  0  0  0  0  0  0  0  0  0  0
    1.3653    0.7919    0.0000 C   0  0  0  0  0  0  0  0  0  0  0  0
    2.7752    1.3038    0.0000 C   0  0  0  0  0  0  0  0  0  0  0  0
    3.9235    0.3387    0.0000 C   0  0  0  0  0  0  0  0  0  0  0  0
    3.6619   -1.1383    0.0000 C   0  0  0  0  0  0  0  0  0  0  0  0
    2.2520   -1.6502    0.0000 C   0  0  0  0  0  0  0  0  0  0  0  0
   -2.8645   -0.7439    0.0000 C   0  0  0  0  0  0  0  0  0  0  0  0
   -4.0128    0.2211    0.0000 R   0  0  0  0  0  1  0  0  0  0  0  0
   -3.1261   -2.2209    0.0000 O   0  0  0  0  0  0  0  0  0  0  0  0
  1  2  1  0
  2  3  1  0
  2  4  1  0
  4  5  1  1
  5  6  1  0
  6  7  2  0
  7  8  1  0
  8  9  2  0
  9 10  1  0
 10 11  2  0
  4 12  1  0
 12 13  1  0
 12 14  2  0
 11  6  1  0
M  ISO  3   1   1   3   3  13   2
M  END
>  <symbol>  (7) 
F

>  <m_abbr>  (7) 
F

>  <m_name>  (7) 
L-Phenylalanine

>  <m_type>  (7) 
aa

>  <m_subtype>  (7) 
natural

>  <m_Rgroups>  (7) 
[H],[OH],[H]

>  <m_chem_types>  (7) 
1:backbone_n,2:backbone_c,3:backbone_n_mod

>  <m_activation_policy>  (7) 
canonical-sites-v1

$$$$

     RDKit          2D

 18 19  0  0  0  0  0  0  0  0999 V2000
   -3.8349   -1.8005    0.0000 R   0  0  0  0  0  1  0  0  0  0  0  0
   -2.4851   -1.1463    0.0000 N   0  0  0  0  0  0  0  0  0  0  0  0
   -1.2436   -1.9882    0.0000 R   0  0  0  0  0  1  0  0  0  0  0  0
   -2.3767    0.3497    0.0000 C   0  0  0  0  0  0  0  0  0  0  0  0
   -1.0269    1.0039    0.0000 C   0  0  0  0  0  0  0  0  0  0  0  0
    0.2146    0.1620    0.0000 C   0  0  0  0  0  0  0  0  0  0  0  0
    0.2632   -1.3372    0.0000 C   0  0  0  0  0  0  0  0  0  0  0  0
    1.7040   -1.7543    0.0000 N   0  0  0  0  0  0  0  0  0  0  0  0
    2.2135   -3.1651    0.0000 R   0  0  0  0  0  1  0  0  0  0  0  0
    2.5459   -0.5128    0.0000 C   0  0  0  0  0  0  0  0  0  0  0  0
    4.0318   -0.3078    0.0000 C   0  0  0  0  0  0  0  0  0  0  0  0
    4.5972    1.0816    0.0000 C   0  0  0  0  0  0  0  0  0  0  0  0
    3.6767    2.2659    0.0000 C   0  0  0  0  0  0  0  0  0  0  0  0
    2.1908    2.0609    0.0000 C   0  0  0  0  0  0  0  0  0  0  0  0
    1.6254    0.6715    0.0000 C   0  0  0  0  0  0  0  0  0  0  0  0
   -3.6182    1.1916    0.0000 C   0  0  0  0  0  0  0  0  0  0  0  0
   -4.9680    0.5375    0.0000 R   0  0  0  0  0  1  0  0  0  0  0  0
   -3.5098    2.6877    0.0000 O   0  0  0  0  0  0  0  0  0  0  0  0
  1  2  1  0
  2  3  1  0
  2  4  1  0
  4  5  1  6
  5  6  1  0
  6  7  2  0
  7  8  1  0
  8  9  1  0
  8 10  1  0
 10 11  2  0
 11 12  1  0
 12 13  2  0
 13 14  1  0
 14 15  2  0
  4 16  1  0
 16 17  1  0
 16 18  2  0
 15  6  1  0
 15 10  1  0
M  ISO  4   1   1   3   3   9   4  17   2
M  END
>  <symbol>  (8) 
W

>  <m_abbr>  (8) 
W

>  <m_name>  (8) 
L-Tryptophan

>  <m_type>  (8) 
aa

>  <m_subtype>  (8) 
natural

>  <m_Rgroups>  (8) 
[H],[OH],[H],[H]

>  <m_chem_types>  (8) 
1:backbone_n,2:backbone_c,3:backbone_n_mod,4:aromatic_nh

>  <m_activation_policy>  (8) 
canonical-sites-v1

$$$$

     RDKit          2D

 11 10  0  0  0  0  0  0  0  0999 V2000
   -3.3018   -0.2248    0.0000 R   0  0  0  0  0  1  0  0  0  0  0  0
   -1.9832   -0.9398    0.0000 N   0  0  0  0  0  0  0  0  0  0  0  0
   -1.9430   -2.4392    0.0000 R   0  0  0  0  0  1  0  0  0  0  0  0
   -0.7047   -0.1553    0.0000 C   0  0  0  0  0  0  0  0  0  0  0  0
    0.6140   -0.8702    0.0000 C   0  0  0  0  0  0  0  0  0  0  0  0
    1.8925   -0.0858    0.0000 C   0  0  0  0  0  0  0  0  0  0  0  0
    3.2111   -0.8007    0.0000 S   0  0  0  0  0  0  0  0  0  0  0  0
    4.4896   -0.0162    0.0000 C   0  0  0  0  0  0  0  0  0  0  0  0
   -0.7448    1.3442    0.0000 C   0  0  0  0  0  0  0  0  0  0  0  0
    0.5337    2.1287    0.0000 R   0  0  0  0  0  1  0  0  0  0  0  0
   -2.0634    2.0592    0.0000 O   0  0  0  0  0  0  0  0  0  0  0  0
  1  2  1  0
  2  3  1  0
  2  4  1  0
  4  5  1  6
  5  6  1  0
  6  7  1  0
  7  8  1  0
  4  9  1  0
  9 10  1  0
  9 11  2  0
M  ISO  3   1   1   3   3  10   2
M  END
>  <symbol>  (9) 
M

>  <m_abbr>  (9) 
M

>  <m_name>  (9) 
L-Methionine

>  <m_type>  (9) 
aa

>  <m_subtype>  (9) 
natural

>  <m_Rgroups>  (9) 
[H],[OH],[H]

>  <m_chem_types>  (9) 
1:backbone_n,2:backbone_c,3:backbone_n_mod

>  <m_activation_policy>  (9) 
canonical-sites-v1

$$$$

     RDKit          2D

 10  9  0  0  0  0  0  0  0  0999 V2000
   -2.8539   -0.2134    0.0000 R   0  0  0  0  0  1  0  0  0  0  0  0
   -1.5385   -0.9344    0.0000 N   0  0  0  0  0  0  0  0  0  0  0  0
   -1.5052   -2.4340    0.0000 R   0  0  0  0  0  1  0  0  0  0  0  0
   -0.2564   -0.1557    0.0000 C   0  0  0  0  0  0  0  0  0  0  0  0
    1.0589   -0.8767    0.0000 C   0  0  0  0  0  0  0  0  0  0  0  0
    2.3410   -0.0981    0.0000 O   0  0  0  0  0  0  0  0  0  0  0  0
    3.6564   -0.8191    0.0000 R   0  0  0  0  0  1  0  0  0  0  0  0
   -0.2897    1.3439    0.0000 C   0  0  0  0  0  0  0  0  0  0  0  0
    0.9924    2.1225    0.0000 R   0  0  0  0  0  1  0  0  0  0  0  0
   -1.6051    2.0649    0.0000 O   0  0  0  0  0  0  0  0  0  0  0  0
  1  2  1  0
  2  3  1  0
  2  4  1  0
  4  5  1  6
  5  6  1  0
  6  7  1  0
  4  8  1  0
  8  9  1  0
  8 10  2  0
M  ISO  4   1   1   3   3   7   4   9   2
M  END
>  <symbol>  (10) 
S

>  <m_abbr>  (10) 
S

>  <m_name>  (10) 
L-Serine

>  <m_type>  (10) 
aa

>  <m_subtype>  (10) 
natural

>  <m_Rgroups>  (10) 
[H],[OH],[H],[H]

>  <m_chem_types>  (10) 
1:backbone_n,2:backbone_c,3:backbone_n_mod,4:hydroxyl

>  <m_activation_policy>  (10) 
canonical-sites-v1

$$$$

     RDKit          2D

 11 10  0  0  0  0  0  0  0  0999 V2000
   -2.0616   -1.9640    0.0000 R   0  0  0  0  0  1  0  0  0  0  0  0
   -0.6443   -1.4730    0.0000 N   0  0  0  0  0  0  0  0  0  0  0  0
    0.4896   -2.4550    0.0000 R   0  0  0  0  0  1  0  0  0  0  0  0
   -0.3608    0.0000    0.0000 C   0  0  0  0  0  0  0  0  0  0  0  0
   -1.4947    0.9820    0.0000 C   0  0  0  0  0  0  0  0  0  0  0  0
   -1.2112    2.4550    0.0000 R   0  0  0  0  0  1  0  0  0  0  0  0
   -2.9120    0.4910    0.0000 O   0  0  0  0  0  0  0  0  0  0  0  0
    1.0566    0.4910    0.0000 C   0  0  0  0  0  0  0  0  0  0  0  0
    1.3401    1.9640    0.0000 C   0  0  0  0  0  0  0  0  0  0  0  0
    2.1905   -0.4910    0.0000 O   0  0  0  0  0  0  0  0  0  0  0  0
    3.6078   -0.0000    0.0000 R   0  0  0  0  0  1  0  0  0  0  0  0
  1  2  1  0
  2  3  1  0
  4  2  1  6
  4  5  1  0
  5  6  1  0
  5  7  2  0
  4  8  1  0
  8  9  1  1
  8 10  1  0
 10 11  1  0
M  ISO  4   1   1   3   3   6   2  11   4
M  END
>  <symbol>  (11) 
T

>  <m_abbr>  (11) 
T

>  <m_name>  (11) 
L-Threonine

>  <m_type>  (11) 
aa

>  <m_subtype>  (11) 
natural

>  <m_Rgroups>  (11) 
[H],[OH],[H],[H]

>  <m_chem_types>  (11) 
1:backbone_n,2:backbone_c,3:backbone_n_mod,4:hydroxyl

>  <m_activation_policy>  (11) 
canonical-sites-v1

$$$$

     RDKit          2D

 10  9  0  0  0  0  0  0  0  0999 V2000
   -1.5052    2.4340    0.0000 R   0  0  0  0  0  1  0  0  0  0  0  0
   -1.5385    0.9344    0.0000 N   0  0  0  0  0  0  0  0  0  0  0  0
   -2.8539    0.2134    0.0000 R   0  0  0  0  0  1  0  0  0  0  0  0
   -0.2564    0.1557    0.0000 C   0  0  0  0  0  0  0  0  0  0  0  0
    1.0589    0.8767    0.0000 C   0  0  0  0  0  0  0  0  0  0  0  0
    2.3410    0.0981    0.0000 S   0  0  0  0  0  0  0  0  0  0  0  0
    3.6564    0.8191    0.0000 R   0  0  0  0  0  1  0  0  0  0  0  0
   -0.2897   -1.3439    0.0000 C   0  0  0  0  0  0  0  0  0  0  0  0
    0.9924   -2.1225    0.0000 R   0  0  0  0  0  1  0  0  0  0  0  0
   -1.6051   -2.0649    0.0000 O   0  0  0  0  0  0  0  0  0  0  0  0
  1  2  1  0
  2  3  1  0
  2  4  1  0
  4  5  1  1
  5  6  1  0
  6  7  1  0
  4  8  1  0
  8  9  1  0
  8 10  2  0
M  ISO  4   1   1   3   3   7   4   9   2
M  END
>  <symbol>  (12) 
C

>  <m_abbr>  (12) 
C

>  <m_name>  (12) 
L-Cysteine

>  <m_type>  (12) 
aa

>  <m_subtype>  (12) 
natural

>  <m_Rgroups>  (12) 
[H],[OH],[H],[H]

>  <m_chem_types>  (12) 
1:backbone_n,2:backbone_c,3:backbone_n_mod,4:thiol

>  <m_activation_policy>  (12) 
canonical-sites-v1

$$$$

     RDKit          2D

 16 16  0  0  0  0  0  0  0  0999 V2000
   -3.0227    2.2431    0.0000 R   0  0  0  0  0  1  0  0  0  0  0  0
   -1.8997    1.2486    0.0000 N   0  0  0  0  0  0  0  0  0  0  0  0
   -0.4770    1.7239    0.0000 R   0  0  0  0  0  1  0  0  0  0  0  0
   -2.1995   -0.2211    0.0000 C   0  0  0  0  0  0  0  0  0  0  0  0
   -1.0766   -1.2156    0.0000 C   0  0  0  0  0  0  0  0  0  0  0  0
    0.3462   -0.7404    0.0000 C   0  0  0  0  0  0  0  0  0  0  0  0
    0.6459    0.7294    0.0000 C   0  0  0  0  0  0  0  0  0  0  0  0
    2.0687    1.2046    0.0000 C   0  0  0  0  0  0  0  0  0  0  0  0
    3.1916    0.2101    0.0000 C   0  0  0  0  0  0  0  0  0  0  0  0
    4.6143    0.6854    0.0000 O   0  0  0  0  0  0  0  0  0  0  0  0
    5.7373   -0.3091    0.0000 R   0  0  0  0  0  1  0  0  0  0  0  0
    2.8918   -1.2596    0.0000 C   0  0  0  0  0  0  0  0  0  0  0  0
    1.4691   -1.7348    0.0000 C   0  0  0  0  0  0  0  0  0  0  0  0
   -3.6222   -0.6964    0.0000 C   0  0  0  0  0  0  0  0  0  0  0  0
   -4.7452    0.2981    0.0000 R   0  0  0  0  0  1  0  0  0  0  0  0
   -3.9220   -2.1661    0.0000 O   0  0  0  0  0  0  0  0  0  0  0  0
  1  2  1  0
  2  3  1  0
  2  4  1  0
  4  5  1  1
  5  6  1  0
  6  7  1  0
  7  8  2  0
  8  9  1  0
  9 10  1  0
 10 11  1  0
  9 12  2  0
 12 13  1  0
  4 14  1  0
 14 15  1  0
 14 16  2  0
 13  6  2  0
M  ISO  4   1   1   3   3  11   4  15   2
M  END
>  <symbol>  (13) 
Y

>  <m_abbr>  (13) 
Y

>  <m_name>  (13) 
L-Tyrosine

>  <m_type>  (13) 
aa

>  <m_subtype>  (13) 
natural

>  <m_Rgroups>  (13) 
[H],[OH],[H],[H]

>  <m_chem_types>  (13) 
1:backbone_n,2:backbone_c,3:backbone_n_mod,4:aryl_phenol_o

>  <m_activation_policy>  (13) 
canonical-sites-v1

$$$$

     RDKit          2D

 14 14  0  0  0  0  0  0  0  0999 V2000
   -2.5982    2.0750    0.0000 R   0  0  0  0  0  1  0  0  0  0  0  0
   -1.3182    1.2930    0.0000 N   0  0  0  0  0  0  0  0  0  0  0  0
   -0.0009    2.0105    0.0000 R   0  0  0  0  0  1  0  0  0  0  0  0
   -1.3555   -0.2066    0.0000 C   0  0  0  0  0  0  0  0  0  0  0  0
   -0.0755   -0.9886    0.0000 C   0  0  0  0  0  0  0  0  0  0  0  0
    1.2418   -0.2711    0.0000 C   0  0  0  0  0  0  0  0  0  0  0  0
    1.4356    1.2163    0.0000 C   0  0  0  0  0  0  0  0  0  0  0  0
    2.9102    1.4916    0.0000 N   0  0  0  0  0  0  0  0  0  0  0  0
    3.6276    0.1743    0.0000 C   0  0  0  0  0  0  0  0  0  0  0  0
    2.5966   -0.9151    0.0000 N   0  0  0  0  0  0  0  0  0  0  0  0
    2.8719   -2.3896    0.0000 R   0  0  0  0  0  1  0  0  0  0  0  0
   -2.6727   -0.9241    0.0000 C   0  0  0  0  0  0  0  0  0  0  0  0
   -3.9527   -0.1420    0.0000 R   0  0  0  0  0  1  0  0  0  0  0  0
   -2.7100   -2.4236    0.0000 O   0  0  0  0  0  0  0  0  0  0  0  0
  1  2  1  0
  2  3  1  0
  2  4  1  0
  4  5  1  1
  5  6  1  0
  6  7  2  0
  7  8  1  0
  8  9  2  0
  9 10  1  0
 10 11  1  0
  4 12  1  0
 12 13  1  0
 12 14  2  0
 10  6  1  0
M  ISO  4   1   1   3   3  11   4  13   2
M  END
>  <symbol>  (14) 
H

>  <m_abbr>  (14) 
H

>  <m_name>  (14) 
L-Histidine

>  <m_type>  (14) 
aa

>  <m_subtype>  (14) 
natural

>  <m_Rgroups>  (14) 
[H],[OH],[H],[H]

>  <m_chem_types>  (14) 
1:backbone_n,2:backbone_c,3:backbone_n_mod,4:aromatic_nh

>  <m_activation_policy>  (14) 
canonical-sites-v1

$$$$

     RDKit          2D

 11 10  0  0  0  0  0  0  0  0999 V2000
   -3.0813    0.0866    0.0000 R   0  0  0  0  0  1  0  0  0  0  0  0
   -1.8784   -0.8095    0.0000 N   0  0  0  0  0  0  0  0  0  0  0  0
   -2.0531   -2.2993    0.0000 R   0  0  0  0  0  1  0  0  0  0  0  0
   -0.5009   -0.2159    0.0000 C   0  0  0  0  0  0  0  0  0  0  0  0
    0.7020   -1.1120    0.0000 C   0  0  0  0  0  0  0  0  0  0  0  0
    2.0795   -0.5184    0.0000 C   0  0  0  0  0  0  0  0  0  0  0  0
    3.2824   -1.4145    0.0000 R   0  0  0  0  0  1  0  0  0  0  0  0
    2.2541    0.9714    0.0000 O   0  0  0  0  0  0  0  0  0  0  0  0
   -0.3263    1.2739    0.0000 C   0  0  0  0  0  0  0  0  0  0  0  0
    1.0513    1.8676    0.0000 R   0  0  0  0  0  1  0  0  0  0  0  0
   -1.5291    2.1701    0.0000 O   0  0  0  0  0  0  0  0  0  0  0  0
  1  2  1  0
  2  3  1  0
  2  4  1  0
  4  5  1  6
  5  6  1  0
  6  7  1  0
  6  8  2  0
  4  9  1  0
  9 10  1  0
  9 11  2  0
M  ISO  4   1   1   3   3   7   4  10   2
M  END
>  <symbol>  (15) 
D

>  <m_abbr>  (15) 
D

>  <m_name>  (15) 
L-Aspartate

>  <m_type>  (15) 
aa

>  <m_subtype>  (15) 
natural

>  <m_Rgroups>  (15) 
[H],[OH],[H],[OH]

>  <m_chem_types>  (15) 
1:backbone_n,2:backbone_c,3:backbone_n_mod,4:carboxyl

>  <m_activation_policy>  (15) 
canonical-sites-v1

$$$$

     RDKit          2D

 12 11  0  0  0  0  0  0  0  0999 V2000
   -3.5281   -0.5638    0.0000 R   0  0  0  0  0  1  0  0  0  0  0  0
   -2.1179   -1.0748    0.0000 N   0  0  0  0  0  0  0  0  0  0  0  0
   -1.8553   -2.5517    0.0000 R   0  0  0  0  0  1  0  0  0  0  0  0
   -0.9702   -0.1090    0.0000 C   0  0  0  0  0  0  0  0  0  0  0  0
    0.4401   -0.6200    0.0000 C   0  0  0  0  0  0  0  0  0  0  0  0
    1.5878    0.3458    0.0000 C   0  0  0  0  0  0  0  0  0  0  0  0
    2.9981   -0.1653    0.0000 C   0  0  0  0  0  0  0  0  0  0  0  0
    4.1458    0.8005    0.0000 R   0  0  0  0  0  1  0  0  0  0  0  0
    3.2606   -1.6421    0.0000 O   0  0  0  0  0  0  0  0  0  0  0  0
   -1.2327    1.3678    0.0000 C   0  0  0  0  0  0  0  0  0  0  0  0
   -0.0850    2.3336    0.0000 R   0  0  0  0  0  1  0  0  0  0  0  0
   -2.6430    1.8789    0.0000 O   0  0  0  0  0  0  0  0  0  0  0  0
  1  2  1  0
  2  3  1  0
  2  4  1  0
  4  5  1  6
  5  6  1  0
  6  7  1  0
  7  8  1  0
  7  9  2  0
  4 10  1  0
 10 11  1  0
 10 12  2  0
M  ISO  4   1   1   3   3   8   4  11   2
M  END
>  <symbol>  (16) 
E

>  <m_abbr>  (16) 
E

>  <m_name>  (16) 
L-Glutamate

>  <m_type>  (16) 
aa

>  <m_subtype>  (16) 
natural

>  <m_Rgroups>  (16) 
[H],[OH],[H],[OH]

>  <m_chem_types>  (16) 
1:backbone_n,2:backbone_c,3:backbone_n_mod,4:carboxyl

>  <m_activation_policy>  (16) 
canonical-sites-v1

$$$$

     RDKit          2D

 13 12  0  0  0  0  0  0  0  0999 V2000
   -3.6603   -0.5247    0.0000 R   0  0  0  0  0  1  0  0  0  0  0  0
   -2.2769   -1.1044    0.0000 N   0  0  0  0  0  0  0  0  0  0  0  0
   -2.0872   -2.5924    0.0000 R   0  0  0  0  0  1  0  0  0  0  0  0
   -1.0831   -0.1962    0.0000 C   0  0  0  0  0  0  0  0  0  0  0  0
    0.3004   -0.7759    0.0000 C   0  0  0  0  0  0  0  0  0  0  0  0
    1.4942    0.1323    0.0000 C   0  0  0  0  0  0  0  0  0  0  0  0
    1.3045    1.6202    0.0000 O   0  0  0  0  0  0  0  0  0  0  0  0
    2.8776   -0.4475    0.0000 N   0  0  0  0  0  0  0  0  0  0  0  0
    4.0714    0.4608    0.0000 R   0  0  0  0  0  1  0  0  0  0  0  0
    3.0672   -1.9354    0.0000 R   0  0  0  0  0  1  0  0  0  0  0  0
   -1.2727    1.2918    0.0000 C   0  0  0  0  0  0  0  0  0  0  0  0
   -0.0789    2.2000    0.0000 R   0  0  0  0  0  1  0  0  0  0  0  0
   -2.6562    1.8715    0.0000 O   0  0  0  0  0  0  0  0  0  0  0  0
  1  2  1  0
  2  3  1  0
  2  4  1  0
  4  5  1  6
  5  6  1  0
  6  7  2  0
  6  8  1  0
  8  9  1  0
  8 10  1  0
  4 11  1  0
 11 12  1  0
 11 13  2  0
M  ISO  5   1   1   3   3   9   4  10   5  12   2
M  END
>  <symbol>  (17) 
N

>  <m_abbr>  (17) 
N

>  <m_name>  (17) 
L-Asparagine

>  <m_type>  (17) 
aa

>  <m_subtype>  (17) 
natural

>  <m_Rgroups>  (17) 
[H],[OH],[H],[H],[H]

>  <m_chem_types>  (17) 
1:backbone_n,2:backbone_c,3:backbone_n_mod,4:amide_nh,5:amide_nh

>  <m_activation_policy>  (17) 
canonical-sites-v1

$$$$

     RDKit          2D

 14 13  0  0  0  0  0  0  0  0999 V2000
   -4.2577   -0.3004    0.0000 R   0  0  0  0  0  1  0  0  0  0  0  0
   -2.9091   -0.9571    0.0000 N   0  0  0  0  0  0  0  0  0  0  0  0
   -2.8035   -2.4534    0.0000 R   0  0  0  0  0  1  0  0  0  0  0  0
   -1.6661   -0.1175    0.0000 C   0  0  0  0  0  0  0  0  0  0  0  0
   -0.3175   -0.7743    0.0000 C   0  0  0  0  0  0  0  0  0  0  0  0
    0.9256    0.0653    0.0000 C   0  0  0  0  0  0  0  0  0  0  0  0
    2.2742   -0.5914    0.0000 C   0  0  0  0  0  0  0  0  0  0  0  0
    2.3797   -2.0877    0.0000 O   0  0  0  0  0  0  0  0  0  0  0  0
    3.5172    0.2481    0.0000 N   0  0  0  0  0  0  0  0  0  0  0  0
    4.8658   -0.4086    0.0000 R   0  0  0  0  0  1  0  0  0  0  0  0
    3.4117    1.7444    0.0000 R   0  0  0  0  0  1  0  0  0  0  0  0
   -1.7716    1.3787    0.0000 C   0  0  0  0  0  0  0  0  0  0  0  0
   -0.5286    2.2183    0.0000 R   0  0  0  0  0  1  0  0  0  0  0  0
   -3.1202    2.0355    0.0000 O   0  0  0  0  0  0  0  0  0  0  0  0
  1  2  1  0
  2  3  1  0
  2  4  1  0
  4  5  1  6
  5  6  1  0
  6  7  1  0
  7  8  2  0
  7  9  1  0
  9 10  1  0
  9 11  1  0
  4 12  1  0
 12 13  1  0
 12 14  2  0
M  ISO  5   1   1   3   3  10   4  11   5  13   2
M  END
>  <symbol>  (18) 
Q

>  <m_abbr>  (18) 
Q

>  <m_name>  (18) 
L-Glutamine

>  <m_type>  (18) 
aa

>  <m_subtype>  (18) 
natural

>  <m_Rgroups>  (18) 
[H],[OH],[H],[H],[H]

>  <m_chem_types>  (18) 
1:backbone_n,2:backbone_c,3:backbone_n_mod,4:amide_nh,5:amide_nh

>  <m_activation_policy>  (18) 
canonical-sites-v1

$$$$

     RDKit          2D

 14 13  0  0  0  0  0  0  0  0999 V2000
   -4.6155   -0.4823    0.0000 R   0  0  0  0  0  1  0  0  0  0  0  0
   -3.2318   -1.0614    0.0000 N   0  0  0  0  0  0  0  0  0  0  0  0
   -3.0416   -2.5493    0.0000 R   0  0  0  0  0  1  0  0  0  0  0  0
   -2.0384   -0.1527    0.0000 C   0  0  0  0  0  0  0  0  0  0  0  0
   -0.6548   -0.7318    0.0000 C   0  0  0  0  0  0  0  0  0  0  0  0
    0.5386    0.1769    0.0000 C   0  0  0  0  0  0  0  0  0  0  0  0
    1.9223   -0.4023    0.0000 C   0  0  0  0  0  0  0  0  0  0  0  0
    3.1157    0.5065    0.0000 C   0  0  0  0  0  0  0  0  0  0  0  0
    4.4994   -0.0727    0.0000 N   0  0  0  0  0  0  0  0  0  0  0  0
    5.6928    0.8361    0.0000 R   0  0  0  0  0  1  0  0  0  0  0  0
    4.6897   -1.5606    0.0000 R   0  0  0  0  0  1  0  0  0  0  0  0
   -2.2287    1.3352    0.0000 C   0  0  0  0  0  0  0  0  0  0  0  0
   -1.0353    2.2439    0.0000 R   0  0  0  0  0  1  0  0  0  0  0  0
   -3.6124    1.9144    0.0000 O   0  0  0  0  0  0  0  0  0  0  0  0
  1  2  1  0
  2  3  1  0
  2  4  1  0
  4  5  1  6
  5  6  1  0
  6  7  1  0
  7  8  1  0
  8  9  1  0
  9 10  1  0
  9 11  1  0
  4 12  1  0
 12 13  1  0
 12 14  2  0
M  ISO  5   1   1   3   3  10   4  11   5  13   2
M  END
>  <symbol>  (19) 
K

>  <m_abbr>  (19) 
K

>  <m_name>  (19) 
L-Lysine

>  <m_type>  (19) 
aa

>  <m_subtype>  (19) 
natural

>  <m_Rgroups>  (19) 
[H],[OH],[H],[H],[H]

>  <m_chem_types>  (19) 
1:backbone_n,2:backbone_c,3:backbone_n_mod,4:amine_primary,5:amine_primary

>  <m_activation_policy>  (19) 
canonical-sites-v1

$$$$

     RDKit          2D

  8  7  0  0  0  0  0  0  0  0999 V2000
   -1.2990    1.6875    0.0000 R   0  0  0  0  0  1  0  0  0  0  0  0
   -1.2990    0.1875    0.0000 N   0  0  0  0  0  0  0  0  0  0  0  0
   -2.5981   -0.5625    0.0000 R   0  0  0  0  0  1  0  0  0  0  0  0
    0.0000   -0.5625    0.0000 C   0  0  0  0  0  0  0  0  0  0  0  0
    0.0000   -2.0625    0.0000 C   0  0  0  0  0  0  0  0  0  0  0  0
    1.2990    0.1875    0.0000 C   0  0  0  0  0  0  0  0  0  0  0  0
    2.5981   -0.5625    0.0000 R   0  0  0  0  0  1  0  0  0  0  0  0
    1.2990    1.6875    0.0000 O   0  0  0  0  0  0  0  0  0  0  0  0
  1  2  1  0
  2  3  1  0
  2  4  1  0
  4  5  1  1
  4  6  1  0
  6  7  1  0
  6  8  2  0
M  ISO  3   1   1   3   3   7   2
M  END
>  <symbol>  (20) 
DAla

>  <m_abbr>  (20) 
DAla

>  <m_name>  (20) 
D-Alanine

>  <m_type>  (20) 
aa

>  <m_subtype>  (20) 
natural

>  <m_Rgroups>  (20) 
[H],[OH],[H]

>  <m_chem_types>  (20) 
1:backbone_n,2:backbone_c,3:backbone_n_mod

>  <m_activation_policy>  (20) 
canonical-sites-v1

$$$$

     RDKit          2D

 10  9  0  0  0  0  0  0  0  0999 V2000
   -1.2990   -2.2500    0.0000 R   0  0  0  0  0  1  0  0  0  0  0  0
    0.0000   -1.5000    0.0000 N   0  0  0  0  0  0  0  0  0  0  0  0
    1.2990   -2.2500    0.0000 R   0  0  0  0  0  1  0  0  0  0  0  0
    0.0000    0.0000    0.0000 C   0  0  0  0  0  0  0  0  0  0  0  0
   -1.2990    0.7500    0.0000 C   0  0  0  0  0  0  0  0  0  0  0  0
   -1.2990    2.2500    0.0000 R   0  0  0  0  0  1  0  0  0  0  0  0
   -2.5981   -0.0000    0.0000 O   0  0  0  0  0  0  0  0  0  0  0  0
    1.2990    0.7500    0.0000 C   0  0  0  0  0  0  0  0  0  0  0  0
    1.2990    2.2500    0.0000 C   0  0  0  0  0  0  0  0  0  0  0  0
    2.5981    0.0000    0.0000 C   0  0  0  0  0  0  0  0  0  0  0  0
  1  2  1  0
  2  3  1  0
  2  4  1  0
  4  5  1  0
  5  6  1  0
  5  7  2  0
  4  8  1  1
  8  9  1  0
  8 10  1  0
M  ISO  3   1   1   3   3   6   2
M  END
>  <symbol>  (21) 
DVal

>  <m_abbr>  (21) 
DVal

>  <m_name>  (21) 
D-Valine

>  <m_type>  (21) 
aa

>  <m_subtype>  (21) 
natural

>  <m_Rgroups>  (21) 
[H],[OH],[H]

>  <m_chem_types>  (21) 
1:backbone_n,2:backbone_c,3:backbone_n_mod

>  <m_activation_policy>  (21) 
canonical-sites-v1

$$$$

     RDKit          2D

 11 10  0  0  0  0  0  0  0  0999 V2000
   -3.0813    0.0866    0.0000 R   0  0  0  0  0  1  0  0  0  0  0  0
   -1.8784   -0.8095    0.0000 N   0  0  0  0  0  0  0  0  0  0  0  0
   -2.0531   -2.2993    0.0000 R   0  0  0  0  0  1  0  0  0  0  0  0
   -0.5009   -0.2159    0.0000 C   0  0  0  0  0  0  0  0  0  0  0  0
    0.7020   -1.1120    0.0000 C   0  0  0  0  0  0  0  0  0  0  0  0
    2.0795   -0.5184    0.0000 C   0  0  0  0  0  0  0  0  0  0  0  0
    3.2824   -1.4145    0.0000 C   0  0  0  0  0  0  0  0  0  0  0  0
    2.2541    0.9714    0.0000 C   0  0  0  0  0  0  0  0  0  0  0  0
   -0.3263    1.2739    0.0000 C   0  0  0  0  0  0  0  0  0  0  0  0
    1.0513    1.8676    0.0000 R   0  0  0  0  0  1  0  0  0  0  0  0
   -1.5291    2.1701    0.0000 O   0  0  0  0  0  0  0  0  0  0  0  0
  1  2  1  0
  2  3  1  0
  2  4  1  0
  4  5  1  1
  5  6  1  0
  6  7  1  0
  6  8  1  0
  4  9  1  0
  9 10  1  0
  9 11  2  0
M  ISO  3   1   1   3   3  10   2
M  END
>  <symbol>  (22) 
DLeu

>  <m_abbr>  (22) 
DLeu

>  <m_name>  (22) 
D-Leucine

>  <m_type>  (22) 
aa

>  <m_subtype>  (22) 
natural

>  <m_Rgroups>  (22) 
[H],[OH],[H]

>  <m_chem_types>  (22) 
1:backbone_n,2:backbone_c,3:backbone_n_mod

>  <m_activation_policy>  (22) 
canonical-sites-v1

$$$$

     RDKit          2D

 11 10  0  0  0  0  0  0  0  0999 V2000
   -2.0616   -1.9640    0.0000 R   0  0  0  0  0  1  0  0  0  0  0  0
   -0.6443   -1.4730    0.0000 N   0  0  0  0  0  0  0  0  0  0  0  0
    0.4896   -2.4550    0.0000 R   0  0  0  0  0  1  0  0  0  0  0  0
   -0.3608    0.0000    0.0000 C   0  0  0  0  0  0  0  0  0  0  0  0
   -1.4947    0.9820    0.0000 C   0  0  0  0  0  0  0  0  0  0  0  0
   -1.2112    2.4550    0.0000 R   0  0  0  0  0  1  0  0  0  0  0  0
   -2.9120    0.4910    0.0000 O   0  0  0  0  0  0  0  0  0  0  0  0
    1.0566    0.4910    0.0000 C   0  0  0  0  0  0  0  0  0  0  0  0
    1.3401    1.9640    0.0000 C   0  0  0  0  0  0  0  0  0  0  0  0
    2.1905   -0.4910    0.0000 C   0  0  0  0  0  0  0  0  0  0  0  0
    3.6078   -0.0000    0.0000 C   0  0  0  0  0  0  0  0  0  0  0  0
  1  2  1  0
  2  3  1  0
  4  2  1  1
  4  5  1  0
  5  6  1  0
  5  7  2  0
  4  8  1  0
  8  9  1  6
  8 10  1  0
 10 11  1  0
M  ISO  3   1   1   3   3   6   2
M  END
>  <symbol>  (23) 
DIle

>  <m_abbr>  (23) 
DIle

>  <m_name>  (23) 
D-Isoleucine

>  <m_type>  (23) 
aa

>  <m_subtype>  (23) 
natural

>  <m_Rgroups>  (23) 
[H],[OH],[H]

>  <m_chem_types>  (23) 
1:backbone_n,2:backbone_c,3:backbone_n_mod

>  <m_activation_policy>  (23) 
canonical-sites-v1

$$$$

     RDKit          2D

 14 14  0  0  0  0  0  0  0  0999 V2000
   -2.3413    2.2101    0.0000 R   0  0  0  0  0  1  0  0  0  0  0  0
   -1.1930    1.2450    0.0000 N   0  0  0  0  0  0  0  0  0  0  0  0
    0.2170    1.7569    0.0000 R   0  0  0  0  0  1  0  0  0  0  0  0
   -1.4546   -0.2320    0.0000 C   0  0  0  0  0  0  0  0  0  0  0  0
   -0.3063   -1.1971    0.0000 C   0  0  0  0  0  0  0  0  0  0  0  0
    1.1037   -0.6851    0.0000 C   0  0  0  0  0  0  0  0  0  0  0  0
    1.3653    0.7919    0.0000 C   0  0  0  0  0  0  0  0  0  0  0  0
    2.7752    1.3038    0.0000 C   0  0  0  0  0  0  0  0  0  0  0  0
    3.9235    0.3387    0.0000 C   0  0  0  0  0  0  0  0  0  0  0  0
    3.6619   -1.1383    0.0000 C   0  0  0  0  0  0  0  0  0  0  0  0
    2.2520   -1.6502    0.0000 C   0  0  0  0  0  0  0  0  0  0  0  0
   -2.8645   -0.7439    0.0000 C   0  0  0  0  0  0  0  0  0  0  0  0
   -4.0128    0.2211    0.0000 R   0  0  0  0  0  1  0  0  0  0  0  0
   -3.1261   -2.2209    0.0000 O   0  0  0  0  0  0  0  0  0  0  0  0
  1  2  1  0
  2  3  1  0
  2  4  1  0
  4  5  1  6
  5  6  1  0
  6  7  2  0
  7  8  1  0
  8  9  2  0
  9 10  1  0
 10 11  2  0
  4 12  1  0
 12 13  1  0
 12 14  2  0
 11  6  1  0
M  ISO  3   1   1   3   3  13   2
M  END
>  <symbol>  (24) 
DPhe

>  <m_abbr>  (24) 
DPhe

>  <m_name>  (24) 
D-Phenylalanine

>  <m_type>  (24) 
aa

>  <m_subtype>  (24) 
natural

>  <m_Rgroups>  (24) 
[H],[OH],[H]

>  <m_chem_types>  (24) 
1:backbone_n,2:backbone_c,3:backbone_n_mod

>  <m_activation_policy>  (24) 
canonical-sites-v1

$$$$

     RDKit          2D

 18 19  0  0  0  0  0  0  0  0999 V2000
   -3.8349   -1.8005    0.0000 R   0  0  0  0  0  1  0  0  0  0  0  0
   -2.4851   -1.1463    0.0000 N   0  0  0  0  0  0  0  0  0  0  0  0
   -1.2436   -1.9882    0.0000 R   0  0  0  0  0  1  0  0  0  0  0  0
   -2.3767    0.3497    0.0000 C   0  0  0  0  0  0  0  0  0  0  0  0
   -1.0269    1.0039    0.0000 C   0  0  0  0  0  0  0  0  0  0  0  0
    0.2146    0.1620    0.0000 C   0  0  0  0  0  0  0  0  0  0  0  0
    0.2632   -1.3372    0.0000 C   0  0  0  0  0  0  0  0  0  0  0  0
    1.7040   -1.7543    0.0000 N   0  0  0  0  0  0  0  0  0  0  0  0
    2.2135   -3.1651    0.0000 R   0  0  0  0  0  1  0  0  0  0  0  0
    2.5459   -0.5128    0.0000 C   0  0  0  0  0  0  0  0  0  0  0  0
    4.0318   -0.3078    0.0000 C   0  0  0  0  0  0  0  0  0  0  0  0
    4.5972    1.0816    0.0000 C   0  0  0  0  0  0  0  0  0  0  0  0
    3.6767    2.2659    0.0000 C   0  0  0  0  0  0  0  0  0  0  0  0
    2.1908    2.0609    0.0000 C   0  0  0  0  0  0  0  0  0  0  0  0
    1.6254    0.6715    0.0000 C   0  0  0  0  0  0  0  0  0  0  0  0
   -3.6182    1.1916    0.0000 C   0  0  0  0  0  0  0  0  0  0  0  0
   -4.9680    0.5375    0.0000 R   0  0  0  0  0  1  0  0  0  0  0  0
   -3.5098    2.6877    0.0000 O   0  0  0  0  0  0  0  0  0  0  0  0
  1  2  1  0
  2  3  1  0
  2  4  1  0
  4  5  1  1
  5  6  1  0
  6  7  2  0
  7  8  1  0
  8  9  1  0
  8 10  1  0
 10 11  2  0
 11 12  1  0
 12 13  2  0
 13 14  1  0
 14 15  2  0
  4 16  1  0
 16 17  1  0
 16 18  2  0
 15  6  1  0
 15 10  1  0
M  ISO  4   1   1   3   3   9   4  17   2
M  END
>  <symbol>  (25) 
DTrp

>  <m_abbr>  (25) 
DTrp

>  <m_name>  (25) 
D-Tryptophan

>  <m_type>  (25) 
aa

>  <m_subtype>  (25) 
natural

>  <m_Rgroups>  (25) 
[H],[OH],[H],[H]

>  <m_chem_types>  (25) 
1:backbone_n,2:backbone_c,3:backbone_n_mod,4:aromatic_nh

>  <m_activation_policy>  (25) 
canonical-sites-v1

$$$$

     RDKit          2D

 10  9  0  0  0  0  0  0  0  0999 V2000
   -2.8539   -0.2134    0.0000 R   0  0  0  0  0  1  0  0  0  0  0  0
   -1.5385   -0.9344    0.0000 N   0  0  0  0  0  0  0  0  0  0  0  0
   -1.5052   -2.4340    0.0000 R   0  0  0  0  0  1  0  0  0  0  0  0
   -0.2564   -0.1557    0.0000 C   0  0  0  0  0  0  0  0  0  0  0  0
    1.0589   -0.8767    0.0000 C   0  0  0  0  0  0  0  0  0  0  0  0
    2.3410   -0.0981    0.0000 O   0  0  0  0  0  0  0  0  0  0  0  0
    3.6564   -0.8191    0.0000 R   0  0  0  0  0  1  0  0  0  0  0  0
   -0.2897    1.3439    0.0000 C   0  0  0  0  0  0  0  0  0  0  0  0
    0.9924    2.1225    0.0000 R   0  0  0  0  0  1  0  0  0  0  0  0
   -1.6051    2.0649    0.0000 O   0  0  0  0  0  0  0  0  0  0  0  0
  1  2  1  0
  2  3  1  0
  2  4  1  0
  4  5  1  1
  5  6  1  0
  6  7  1  0
  4  8  1  0
  8  9  1  0
  8 10  2  0
M  ISO  4   1   1   3   3   7   4   9   2
M  END
>  <symbol>  (26) 
DSer

>  <m_abbr>  (26) 
DSer

>  <m_name>  (26) 
D-Serine

>  <m_type>  (26) 
aa

>  <m_subtype>  (26) 
natural

>  <m_Rgroups>  (26) 
[H],[OH],[H],[H]

>  <m_chem_types>  (26) 
1:backbone_n,2:backbone_c,3:backbone_n_mod,4:hydroxyl

>  <m_activation_policy>  (26) 
canonical-sites-v1

$$$$

     RDKit          2D

 11 10  0  0  0  0  0  0  0  0999 V2000
   -2.0616   -1.9640    0.0000 R   0  0  0  0  0  1  0  0  0  0  0  0
   -0.6443   -1.4730    0.0000 N   0  0  0  0  0  0  0  0  0  0  0  0
    0.4896   -2.4550    0.0000 R   0  0  0  0  0  1  0  0  0  0  0  0
   -0.3608    0.0000    0.0000 C   0  0  0  0  0  0  0  0  0  0  0  0
   -1.4947    0.9820    0.0000 C   0  0  0  0  0  0  0  0  0  0  0  0
   -1.2112    2.4550    0.0000 R   0  0  0  0  0  1  0  0  0  0  0  0
   -2.9120    0.4910    0.0000 O   0  0  0  0  0  0  0  0  0  0  0  0
    1.0566    0.4910    0.0000 C   0  0  0  0  0  0  0  0  0  0  0  0
    1.3401    1.9640    0.0000 C   0  0  0  0  0  0  0  0  0  0  0  0
    2.1905   -0.4910    0.0000 O   0  0  0  0  0  0  0  0  0  0  0  0
    3.6078   -0.0000    0.0000 R   0  0  0  0  0  1  0  0  0  0  0  0
  1  2  1  0
  2  3  1  0
  4  2  1  1
  4  5  1  0
  5  6  1  0
  5  7  2  0
  4  8  1  0
  8  9  1  6
  8 10  1  0
 10 11  1  0
M  ISO  4   1   1   3   3   6   2  11   4
M  END
>  <symbol>  (27) 
DThr

>  <m_abbr>  (27) 
DThr

>  <m_name>  (27) 
D-Threonine

>  <m_type>  (27) 
aa

>  <m_subtype>  (27) 
natural

>  <m_Rgroups>  (27) 
[H],[OH],[H],[H]

>  <m_chem_types>  (27) 
1:backbone_n,2:backbone_c,3:backbone_n_mod,4:hydroxyl

>  <m_activation_policy>  (27) 
canonical-sites-v1

$$$$

     RDKit          2D

 10  9  0  0  0  0  0  0  0  0999 V2000
   -1.5052    2.4340    0.0000 R   0  0  0  0  0  1  0  0  0  0  0  0
   -1.5385    0.9344    0.0000 N   0  0  0  0  0  0  0  0  0  0  0  0
   -2.8539    0.2134    0.0000 R   0  0  0  0  0  1  0  0  0  0  0  0
   -0.2564    0.1557    0.0000 C   0  0  0  0  0  0  0  0  0  0  0  0
    1.0589    0.8767    0.0000 C   0  0  0  0  0  0  0  0  0  0  0  0
    2.3410    0.0981    0.0000 S   0  0  0  0  0  0  0  0  0  0  0  0
    3.6564    0.8191    0.0000 R   0  0  0  0  0  1  0  0  0  0  0  0
   -0.2897   -1.3439    0.0000 C   0  0  0  0  0  0  0  0  0  0  0  0
    0.9924   -2.1225    0.0000 R   0  0  0  0  0  1  0  0  0  0  0  0
   -1.6051   -2.0649    0.0000 O   0  0  0  0  0  0  0  0  0  0  0  0
  1  2  1  0
  2  3  1  0
  2  4  1  0
  4  5  1  6
  5  6  1  0
  6  7  1  0
  4  8  1  0
  8  9  1  0
  8 10  2  0
M  ISO  4   1   1   3   3   7   4   9   2
M  END
>  <symbol>  (28) 
DCys

>  <m_abbr>  (28) 
DCys

>  <m_name>  (28) 
D-Cysteine

>  <m_type>  (28) 
aa

>  <m_subtype>  (28) 
natural

>  <m_Rgroups>  (28) 
[H],[OH],[H],[H]

>  <m_chem_types>  (28) 
1:backbone_n,2:backbone_c,3:backbone_n_mod,4:thiol

>  <m_activation_policy>  (28) 
canonical-sites-v1

$$$$

     RDKit          2D

 16 16  0  0  0  0  0  0  0  0999 V2000
   -3.0227    2.2431    0.0000 R   0  0  0  0  0  1  0  0  0  0  0  0
   -1.8997    1.2486    0.0000 N   0  0  0  0  0  0  0  0  0  0  0  0
   -0.4770    1.7239    0.0000 R   0  0  0  0  0  1  0  0  0  0  0  0
   -2.1995   -0.2211    0.0000 C   0  0  0  0  0  0  0  0  0  0  0  0
   -1.0766   -1.2156    0.0000 C   0  0  0  0  0  0  0  0  0  0  0  0
    0.3462   -0.7404    0.0000 C   0  0  0  0  0  0  0  0  0  0  0  0
    0.6459    0.7294    0.0000 C   0  0  0  0  0  0  0  0  0  0  0  0
    2.0687    1.2046    0.0000 C   0  0  0  0  0  0  0  0  0  0  0  0
    3.1916    0.2101    0.0000 C   0  0  0  0  0  0  0  0  0  0  0  0
    4.6143    0.6854    0.0000 O   0  0  0  0  0  0  0  0  0  0  0  0
    5.7373   -0.3091    0.0000 R   0  0  0  0  0  1  0  0  0  0  0  0
    2.8918   -1.2596    0.0000 C   0  0  0  0  0  0  0  0  0  0  0  0
    1.4691   -1.7348    0.0000 C   0  0  0  0  0  0  0  0  0  0  0  0
   -3.6222   -0.6964    0.0000 C   0  0  0  0  0  0  0  0  0  0  0  0
   -4.7452    0.2981    0.0000 R   0  0  0  0  0  1  0  0  0  0  0  0
   -3.9220   -2.1661    0.0000 O   0  0  0  0  0  0  0  0  0  0  0  0
  1  2  1  0
  2  3  1  0
  2  4  1  0
  4  5  1  6
  5  6  1  0
  6  7  1  0
  7  8  2  0
  8  9  1  0
  9 10  1  0
 10 11  1  0
  9 12  2  0
 12 13  1  0
  4 14  1  0
 14 15  1  0
 14 16  2  0
 13  6  2  0
M  ISO  4   1   1   3   3  11   4  15   2
M  END
>  <symbol>  (29) 
DTyr

>  <m_abbr>  (29) 
DTyr

>  <m_name>  (29) 
D-Tyrosine

>  <m_type>  (29) 
aa

>  <m_subtype>  (29) 
natural

>  <m_Rgroups>  (29) 
[H],[OH],[H],[H]

>  <m_chem_types>  (29) 
1:backbone_n,2:backbone_c,3:backbone_n_mod,4:aryl_phenol_o

>  <m_activation_policy>  (29) 
canonical-sites-v1

$$$$

     RDKit          2D

 14 14  0  0  0  0  0  0  0  0999 V2000
   -2.5982    2.0750    0.0000 R   0  0  0  0  0  1  0  0  0  0  0  0
   -1.3182    1.2930    0.0000 N   0  0  0  0  0  0  0  0  0  0  0  0
   -0.0009    2.0105    0.0000 R   0  0  0  0  0  1  0  0  0  0  0  0
   -1.3555   -0.2066    0.0000 C   0  0  0  0  0  0  0  0  0  0  0  0
   -0.0755   -0.9886    0.0000 C   0  0  0  0  0  0  0  0  0  0  0  0
    1.2418   -0.2711    0.0000 C   0  0  0  0  0  0  0  0  0  0  0  0
    1.4356    1.2163    0.0000 C   0  0  0  0  0  0  0  0  0  0  0  0
    2.9102    1.4916    0.0000 N   0  0  0  0  0  0  0  0  0  0  0  0
    3.6276    0.1743    0.0000 C   0  0  0  0  0  0  0  0  0  0  0  0
    2.5966   -0.9151    0.0000 N   0  0  0  0  0  0  0  0  0  0  0  0
    2.8719   -2.3896    0.0000 R   0  0  0  0  0  1  0  0  0  0  0  0
   -2.6727   -0.9241    0.0000 C   0  0  0  0  0  0  0  0  0  0  0  0
   -3.9527   -0.1420    0.0000 R   0  0  0  0  0  1  0  0  0  0  0  0
   -2.7100   -2.4236    0.0000 O   0  0  0  0  0  0  0  0  0  0  0  0
  1  2  1  0
  2  3  1  0
  2  4  1  0
  4  5  1  6
  5  6  1  0
  6  7  2  0
  7  8  1  0
  8  9  2  0
  9 10  1  0
 10 11  1  0
  4 12  1  0
 12 13  1  0
 12 14  2  0
 10  6  1  0
M  ISO  4   1   1   3   3  11   4  13   2
M  END
>  <symbol>  (30) 
DHis

>  <m_abbr>  (30) 
DHis

>  <m_name>  (30) 
D-Histidine

>  <m_type>  (30) 
aa

>  <m_subtype>  (30) 
natural

>  <m_Rgroups>  (30) 
[H],[OH],[H],[H]

>  <m_chem_types>  (30) 
1:backbone_n,2:backbone_c,3:backbone_n_mod,4:aromatic_nh

>  <m_activation_policy>  (30) 
canonical-sites-v1

$$$$

     RDKit          2D

 11 10  0  0  0  0  0  0  0  0999 V2000
   -3.0813    0.0866    0.0000 R   0  0  0  0  0  1  0  0  0  0  0  0
   -1.8784   -0.8095    0.0000 N   0  0  0  0  0  0  0  0  0  0  0  0
   -2.0531   -2.2993    0.0000 R   0  0  0  0  0  1  0  0  0  0  0  0
   -0.5009   -0.2159    0.0000 C   0  0  0  0  0  0  0  0  0  0  0  0
    0.7020   -1.1120    0.0000 C   0  0  0  0  0  0  0  0  0  0  0  0
    2.0795   -0.5184    0.0000 C   0  0  0  0  0  0  0  0  0  0  0  0
    3.2824   -1.4145    0.0000 R   0  0  0  0  0  1  0  0  0  0  0  0
    2.2541    0.9714    0.0000 O   0  0  0  0  0  0  0  0  0  0  0  0
   -0.3263    1.2739    0.0000 C   0  0  0  0  0  0  0  0  0  0  0  0
    1.0513    1.8676    0.0000 R   0  0  0  0  0  1  0  0  0  0  0  0
   -1.5291    2.1701    0.0000 O   0  0  0  0  0  0  0  0  0  0  0  0
  1  2  1  0
  2  3  1  0
  2  4  1  0
  4  5  1  1
  5  6  1  0
  6  7  1  0
  6  8  2  0
  4  9  1  0
  9 10  1  0
  9 11  2  0
M  ISO  4   1   1   3   3   7   4  10   2
M  END
>  <symbol>  (31) 
DAsp

>  <m_abbr>  (31) 
DAsp

>  <m_name>  (31) 
D-Aspartate

>  <m_type>  (31) 
aa

>  <m_subtype>  (31) 
natural

>  <m_Rgroups>  (31) 
[H],[OH],[H],[OH]

>  <m_chem_types>  (31) 
1:backbone_n,2:backbone_c,3:backbone_n_mod,4:carboxyl

>  <m_activation_policy>  (31) 
canonical-sites-v1

$$$$

     RDKit          2D

 12 11  0  0  0  0  0  0  0  0999 V2000
   -3.5281   -0.5638    0.0000 R   0  0  0  0  0  1  0  0  0  0  0  0
   -2.1179   -1.0748    0.0000 N   0  0  0  0  0  0  0  0  0  0  0  0
   -1.8553   -2.5517    0.0000 R   0  0  0  0  0  1  0  0  0  0  0  0
   -0.9702   -0.1090    0.0000 C   0  0  0  0  0  0  0  0  0  0  0  0
    0.4401   -0.6200    0.0000 C   0  0  0  0  0  0  0  0  0  0  0  0
    1.5878    0.3458    0.0000 C   0  0  0  0  0  0  0  0  0  0  0  0
    2.9981   -0.1653    0.0000 C   0  0  0  0  0  0  0  0  0  0  0  0
    4.1458    0.8005    0.0000 R   0  0  0  0  0  1  0  0  0  0  0  0
    3.2606   -1.6421    0.0000 O   0  0  0  0  0  0  0  0  0  0  0  0
   -1.2327    1.3678    0.0000 C   0  0  0  0  0  0  0  0  0  0  0  0
   -0.0850    2.3336    0.0000 R   0  0  0  0  0  1  0  0  0  0  0  0
   -2.6430    1.8789    0.0000 O   0  0  0  0  0  0  0  0  0  0  0  0
  1  2  1  0
  2  3  1  0
  2  4  1  0
  4  5  1  1
  5  6  1  0
  6  7  1  0
  7  8  1  0
  7  9  2  0
  4 10  1  0
 10 11  1  0
 10 12  2  0
M  ISO  4   1   1   3   3   8   4  11   2
M  END
>  <symbol>  (32) 
DGlu

>  <m_abbr>  (32) 
DGlu

>  <m_name>  (32) 
D-Glutamate

>  <m_type>  (32) 
aa

>  <m_subtype>  (32) 
natural

>  <m_Rgroups>  (32) 
[H],[OH],[H],[OH]

>  <m_chem_types>  (32) 
1:backbone_n,2:backbone_c,3:backbone_n_mod,4:carboxyl

>  <m_activation_policy>  (32) 
canonical-sites-v1

$$$$

     RDKit          2D

 13 12  0  0  0  0  0  0  0  0999 V2000
   -3.6603   -0.5247    0.0000 R   0  0  0  0  0  1  0  0  0  0  0  0
   -2.2769   -1.1044    0.0000 N   0  0  0  0  0  0  0  0  0  0  0  0
   -2.0872   -2.5924    0.0000 R   0  0  0  0  0  1  0  0  0  0  0  0
   -1.0831   -0.1962    0.0000 C   0  0  0  0  0  0  0  0  0  0  0  0
    0.3004   -0.7759    0.0000 C   0  0  0  0  0  0  0  0  0  0  0  0
    1.4942    0.1323    0.0000 C   0  0  0  0  0  0  0  0  0  0  0  0
    1.3045    1.6202    0.0000 O   0  0  0  0  0  0  0  0  0  0  0  0
    2.8776   -0.4475    0.0000 N   0  0  0  0  0  0  0  0  0  0  0  0
    4.0714    0.4608    0.0000 R   0  0  0  0  0  1  0  0  0  0  0  0
    3.0672   -1.9354    0.0000 R   0  0  0  0  0  1  0  0  0  0  0  0
   -1.2727    1.2918    0.0000 C   0  0  0  0  0  0  0  0  0  0  0  0
   -0.0789    2.2000    0.0000 R   0  0  0  0  0  1  0  0  0  0  0  0
   -2.6562    1.8715    0.0000 O   0  0  0  0  0  0  0  0  0  0  0  0
  1  2  1  0
  2  3  1  0
  2  4  1  0
  4  5  1  1
  5  6  1  0
  6  7  2  0
  6  8  1  0
  8  9  1  0
  8 10  1  0
  4 11  1  0
 11 12  1  0
 11 13  2  0
M  ISO  5   1   1   3   3   9   4  10   5  12   2
M  END
>  <symbol>  (33) 
DAsn

>  <m_abbr>  (33) 
DAsn

>  <m_name>  (33) 
D-Asparagine

>  <m_type>  (33) 
aa

>  <m_subtype>  (33) 
natural

>  <m_Rgroups>  (33) 
[H],[OH],[H],[H],[H]

>  <m_chem_types>  (33) 
1:backbone_n,2:backbone_c,3:backbone_n_mod,4:amide_nh,5:amide_nh

>  <m_activation_policy>  (33) 
canonical-sites-v1

$$$$

     RDKit          2D

 14 13  0  0  0  0  0  0  0  0999 V2000
   -4.2577   -0.3004    0.0000 R   0  0  0  0  0  1  0  0  0  0  0  0
   -2.9091   -0.9571    0.0000 N   0  0  0  0  0  0  0  0  0  0  0  0
   -2.8035   -2.4534    0.0000 R   0  0  0  0  0  1  0  0  0  0  0  0
   -1.6661   -0.1175    0.0000 C   0  0  0  0  0  0  0  0  0  0  0  0
   -0.3175   -0.7743    0.0000 C   0  0  0  0  0  0  0  0  0  0  0  0
    0.9256    0.0653    0.0000 C   0  0  0  0  0  0  0  0  0  0  0  0
    2.2742   -0.5914    0.0000 C   0  0  0  0  0  0  0  0  0  0  0  0
    2.3797   -2.0877    0.0000 O   0  0  0  0  0  0  0  0  0  0  0  0
    3.5172    0.2481    0.0000 N   0  0  0  0  0  0  0  0  0  0  0  0
    4.8658   -0.4086    0.0000 R   0  0  0  0  0  1  0  0  0  0  0  0
    3.4117    1.7444    0.0000 R   0  0  0  0  0  1  0  0  0  0  0  0
   -1.7716    1.3787    0.0000 C   0  0  0  0  0  0  0  0  0  0  0  0
   -0.5286    2.2183    0.0000 R   0  0  0  0  0  1  0  0  0  0  0  0
   -3.1202    2.0355    0.0000 O   0  0  0  0  0  0  0  0  0  0  0  0
  1  2  1  0
  2  3  1  0
  2  4  1  0
  4  5  1  1
  5  6  1  0
  6  7  1  0
  7  8  2  0
  7  9  1  0
  9 10  1  0
  9 11  1  0
  4 12  1  0
 12 13  1  0
 12 14  2  0
M  ISO  5   1   1   3   3  10   4  11   5  13   2
M  END
>  <symbol>  (34) 
DGln

>  <m_abbr>  (34) 
DGln

>  <m_name>  (34) 
D-Glutamine

>  <m_type>  (34) 
aa

>  <m_subtype>  (34) 
natural

>  <m_Rgroups>  (34) 
[H],[OH],[H],[H],[H]

>  <m_chem_types>  (34) 
1:backbone_n,2:backbone_c,3:backbone_n_mod,4:amide_nh,5:amide_nh

>  <m_activation_policy>  (34) 
canonical-sites-v1

$$$$

     RDKit          2D

 14 13  0  0  0  0  0  0  0  0999 V2000
   -4.6155   -0.4823    0.0000 R   0  0  0  0  0  1  0  0  0  0  0  0
   -3.2318   -1.0614    0.0000 N   0  0  0  0  0  0  0  0  0  0  0  0
   -3.0416   -2.5493    0.0000 R   0  0  0  0  0  1  0  0  0  0  0  0
   -2.0384   -0.1527    0.0000 C   0  0  0  0  0  0  0  0  0  0  0  0
   -0.6548   -0.7318    0.0000 C   0  0  0  0  0  0  0  0  0  0  0  0
    0.5386    0.1769    0.0000 C   0  0  0  0  0  0  0  0  0  0  0  0
    1.9223   -0.4023    0.0000 C   0  0  0  0  0  0  0  0  0  0  0  0
    3.1157    0.5065    0.0000 C   0  0  0  0  0  0  0  0  0  0  0  0
    4.4994   -0.0727    0.0000 N   0  0  0  0  0  0  0  0  0  0  0  0
    5.6928    0.8361    0.0000 R   0  0  0  0  0  1  0  0  0  0  0  0
    4.6897   -1.5606    0.0000 R   0  0  0  0  0  1  0  0  0  0  0  0
   -2.2287    1.3352    0.0000 C   0  0  0  0  0  0  0  0  0  0  0  0
   -1.0353    2.2439    0.0000 R   0  0  0  0  0  1  0  0  0  0  0  0
   -3.6124    1.9144    0.0000 O   0  0  0  0  0  0  0  0  0  0  0  0
  1  2  1  0
  2  3  1  0
  2  4  1  0
  4  5  1  1
  5  6  1  0
  6  7  1  0
  7  8  1  0
  8  9  1  0
  9 10  1  0
  9 11  1  0
  4 12  1  0
 12 13  1  0
 12 14  2  0
M  ISO  5   1   1   3   3  10   4  11   5  13   2
M  END
>  <symbol>  (35) 
DLys

>  <m_abbr>  (35) 
DLys

>  <m_name>  (35) 
D-Lysine

>  <m_type>  (35) 
aa

>  <m_subtype>  (35) 
natural

>  <m_Rgroups>  (35) 
[H],[OH],[H],[H],[H]

>  <m_chem_types>  (35) 
1:backbone_n,2:backbone_c,3:backbone_n_mod,4:amine_primary,5:amine_primary

>  <m_activation_policy>  (35) 
canonical-sites-v1

$$$$

     RDKit          2D

  9  8  0  0  0  0  0  0  0  0999 V2000
   -2.2500    1.2990    0.0000 R   0  0  0  0  0  1  0  0  0  0  0  0
   -1.5000    0.0000    0.0000 N   0  0  0  0  0  0  0  0  0  0  0  0
   -2.2500   -1.2990    0.0000 R   0  0  0  0  0  1  0  0  0  0  0  0
    0.0000    0.0000    0.0000 C   0  0  0  0  0  0  0  0  0  0  0  0
   -0.0000   -1.5000    0.0000 C   0  0  0  0  0  0  0  0  0  0  0  0
    0.0000    1.5000    0.0000 C   0  0  0  0  0  0  0  0  0  0  0  0
    1.5000   -0.0000    0.0000 C   0  0  0  0  0  0  0  0  0  0  0  0
    2.2500    1.2990    0.0000 R   0  0  0  0  0  1  0  0  0  0  0  0
    2.2500   -1.2990    0.0000 O   0  0  0  0  0  0  0  0  0  0  0  0
  1  2  1  0
  2  3  1  0
  2  4  1  0
  4  5  1  0
  4  6  1  0
  4  7  1  0
  7  8  1  0
  7  9  2  0
M  ISO  3   1   1   3   3   8   2
M  END
>  <symbol>  (36) 
Aib

>  <m_abbr>  (36) 
Aib

>  <m_name>  (36) 
alpha-Aminoisobutyric acid

>  <m_type>  (36) 
aa

>  <m_subtype>  (36) 
natural

>  <m_Rgroups>  (36) 
[H],[OH],[H]

>  <m_chem_types>  (36) 
1:backbone_n,2:backbone_c,3:backbone_n_mod

>  <m_activation_policy>  (36) 
canonical-sites-v1

$$$$

     RDKit          2D

 13 12  0  0  0  0  0  0  0  0999 V2000
   -4.0960   -0.1954    0.0000 R   0  0  0  0  0  1  0  0  0  0  0  0
   -2.7929   -0.9383    0.0000 N   0  0  0  0  0  0  0  0  0  0  0  0
   -2.7847   -2.4383    0.0000 R   0  0  0  0  0  1  0  0  0  0  0  0
   -1.4979   -0.1812    0.0000 C   0  0  0  0  0  0  0  0  0  0  0  0
   -0.1948   -0.9242    0.0000 C   0  0  0  0  0  0  0  0  0  0  0  0
    1.1001   -0.1671    0.0000 C   0  0  0  0  0  0  0  0  0  0  0  0
    2.4032   -0.9100    0.0000 C   0  0  0  0  0  0  0  0  0  0  0  0
    3.6982   -0.1529    0.0000 N   0  0  0  0  0  0  0  0  0  0  0  0
    5.0013   -0.8959    0.0000 R   0  0  0  0  0  1  0  0  0  0  0  0
    3.6900    1.3470    0.0000 R   0  0  0  0  0  1  0  0  0  0  0  0
   -1.5061    1.3187    0.0000 C   0  0  0  0  0  0  0  0  0  0  0  0
   -0.2112    2.0758    0.0000 R   0  0  0  0  0  1  0  0  0  0  0  0
   -2.8092    2.0617    0.0000 O   0  0  0  0  0  0  0  0  0  0  0  0
  1  2  1  0
  2  3  1  0
  2  4  1  0
  4  5  1  6
  5  6  1  0
  6  7  1  0
  7  8  1  0
  8  9  1  0
  8 10  1  0
  4 11  1  0
 11 12  1  0
 11 13  2  0
M  ISO  5   1   1   3   3   9   4  10   5  12   2
M  END
>  <symbol>  (37) 
Orn

>  <m_abbr>  (37) 
Orn

>  <m_name>  (37) 
L-Ornithine

>  <m_type>  (37) 
aa

>  <m_subtype>  (37) 
natural

>  <m_Rgroups>  (37) 
[H],[OH],[H],[H],[H]

>  <m_chem_types>  (37) 
1:backbone_n,2:backbone_c,3:backbone_n_mod,4:amine_primary,5:amine_primary

>  <m_activation_policy>  (37) 
canonical-sites-v1

$$$$

     RDKit          2D

 11 11  0  0  0  0  0  0  0  0999 V2000
   -1.0596   -2.4555    0.0000 R   0  0  0  0  0  1  0  0  0  0  0  0
   -0.2576   -1.1879    0.0000 N   0  0  0  0  0  0  0  0  0  0  0  0
    1.2393   -1.0917    0.0000 C   0  0  0  0  0  0  0  0  0  0  0  0
    1.6103    0.3617    0.0000 C   0  0  0  0  0  0  0  0  0  0  0  0
    3.0042    0.9158    0.0000 O   0  0  0  0  0  0  0  0  0  0  0  0
    4.1811   -0.0143    0.0000 R   0  0  0  0  0  1  0  0  0  0  0  0
    0.3427    1.1637    0.0000 C   0  0  0  0  0  0  0  0  0  0  0  0
   -0.8117    0.2060    0.0000 C   0  0  0  0  0  0  0  0  0  0  0  0
   -2.2651    0.5770    0.0000 C   0  0  0  0  0  0  0  0  0  0  0  0
   -2.6705    2.0212    0.0000 R   0  0  0  0  0  1  0  0  0  0  0  0
   -3.3131   -0.4961    0.0000 O   0  0  0  0  0  0  0  0  0  0  0  0
  1  2  1  0
  2  3  1  0
  3  4  1  0
  4  5  1  1
  5  6  1  0
  4  7  1  0
  7  8  1  0
  8  9  1  6
  9 10  1  0
  9 11  2  0
  8  2  1  0
M  ISO  3   1   1   6   4  10   2
M  END
>  <symbol>  (38) 
Hyp

>  <m_abbr>  (38) 
Hyp

>  <m_name>  (38) 
trans-4-Hydroxyproline

>  <m_type>  (38) 
aa

>  <m_subtype>  (38) 
natural

>  <m_Rgroups>  (38) 
[H],[OH],None,[H]

>  <m_chem_types>  (38) 
1:backbone_n,2:backbone_c,4:hydroxyl

>  <m_activation_policy>  (38) 
canonical-sites-v1

$$$$

     RDKit          2D

 11 10  0  0  0  0  0  0  0  0999 V2000
   -3.3018   -0.2248    0.0000 R   0  0  0  0  0  1  0  0  0  0  0  0
   -1.9832   -0.9398    0.0000 N   0  0  0  0  0  0  0  0  0  0  0  0
   -1.9430   -2.4392    0.0000 R   0  0  0  0  0  1  0  0  0  0  0  0
   -0.7047   -0.1553    0.0000 C   0  0  0  0  0  0  0  0  0  0  0  0
    0.6140   -0.8702    0.0000 C   0  0  0  0  0  0  0  0  0  0  0  0
    1.8925   -0.0858    0.0000 C   0  0  0  0  0  0  0  0  0  0  0  0
    3.2111   -0.8007    0.0000 C   0  0  0  0  0  0  0  0  0  0  0  0
    4.4896   -0.0162    0.0000 C   0  0  0  0  0  0  0  0  0  0  0  0
   -0.7448    1.3442    0.0000 C   0  0  0  0  0  0  0  0  0  0  0  0
    0.5337    2.1287    0.0000 R   0  0  0  0  0  1  0  0  0  0  0  0
   -2.0634    2.0592    0.0000 O   0  0  0  0  0  0  0  0  0  0  0  0
  1  2  1  0
  2  3  1  0
  2  4  1  0
  4  5  1  6
  5  6  1  0
  6  7  1  0
  7  8  1  0
  4  9  1  0
  9 10  1  0
  9 11  2  0
M  ISO  3   1   1   3   3  10   2
M  END
>  <symbol>  (39) 
Nle

>  <m_abbr>  (39) 
Nle

>  <m_name>  (39) 
L-Norleucine

>  <m_type>  (39) 
aa

>  <m_subtype>  (39) 
natural

>  <m_Rgroups>  (39) 
[H],[OH],[H]

>  <m_chem_types>  (39) 
1:backbone_n,2:backbone_c,3:backbone_n_mod

>  <m_activation_policy>  (39) 
canonical-sites-v1

$$$$

     RDKit          2D

 10  9  0  0  0  0  0  0  0  0999 V2000
   -2.8539   -0.2134    0.0000 R   0  0  0  0  0  1  0  0  0  0  0  0
   -1.5385   -0.9344    0.0000 N   0  0  0  0  0  0  0  0  0  0  0  0
   -1.5052   -2.4340    0.0000 R   0  0  0  0  0  1  0  0  0  0  0  0
   -0.2564   -0.1557    0.0000 C   0  0  0  0  0  0  0  0  0  0  0  0
    1.0589   -0.8767    0.0000 C   0  0  0  0  0  0  0  0  0  0  0  0
    2.3410   -0.0981    0.0000 C   0  0  0  0  0  0  0  0  0  0  0  0
    3.6564   -0.8191    0.0000 C   0  0  0  0  0  0  0  0  0  0  0  0
   -0.2897    1.3439    0.0000 C   0  0  0  0  0  0  0  0  0  0  0  0
    0.9924    2.1225    0.0000 R   0  0  0  0  0  1  0  0  0  0  0  0
   -1.6051    2.0649    0.0000 O   0  0  0  0  0  0  0  0  0  0  0  0
  1  2  1  0
  2  3  1  0
  2  4  1  0
  4  5  1  6
  5  6  1  0
  6  7  1  0
  4  8  1  0
  8  9  1  0
  8 10  2  0
M  ISO  3   1   1   3   3   9   2
M  END
>  <symbol>  (40) 
Nva

>  <m_abbr>  (40) 
Nva

>  <m_name>  (40) 
L-Norvaline

>  <m_type>  (40) 
aa

>  <m_subtype>  (40) 
natural

>  <m_Rgroups>  (40) 
[H],[OH],[H]

>  <m_chem_types>  (40) 
1:backbone_n,2:backbone_c,3:backbone_n_mod

>  <m_activation_policy>  (40) 
canonical-sites-v1

$$$$

     RDKit          2D

 10  9  0  0  0  0  0  0  0  0999 V2000
   -1.5052    2.4340    0.0000 R   0  0  0  0  0  1  0  0  0  0  0  0
   -1.5385    0.9344    0.0000 N   0  0  0  0  0  0  0  0  0  0  0  0
   -2.8539    0.2134    0.0000 R   0  0  0  0  0  1  0  0  0  0  0  0
   -0.2564    0.1557    0.0000 C   0  0  0  0  0  0  0  0  0  0  0  0
    1.0589    0.8767    0.0000 C   0  0  0  0  0  0  0  0  0  0  0  0
    2.3410    0.0981    0.0000 Se  0  0  0  0  0  2  0  0  0  0  0  0
    3.6564    0.8191    0.0000 R   0  0  0  0  0  1  0  0  0  0  0  0
   -0.2897   -1.3439    0.0000 C   0  0  0  0  0  0  0  0  0  0  0  0
    0.9924   -2.1225    0.0000 R   0  0  0  0  0  1  0  0  0  0  0  0
   -1.6051   -2.0649    0.0000 O   0  0  0  0  0  0  0  0  0  0  0  0
  1  2  1  0
  2  3  1  0
  2  4  1  0
  4  5  1  1
  5  6  1  0
  6  7  1  0
  4  8  1  0
  8  9  1  0
  8 10  2  0
M  ISO  4   1   1   3   3   7   4   9   2
M  END
>  <symbol>  (41) 
Sec

>  <m_abbr>  (41) 
Sec

>  <m_name>  (41) 
L-Selenocysteine

>  <m_type>  (41) 
aa

>  <m_subtype>  (41) 
natural

>  <m_Rgroups>  (41) 
[H],[OH],[H],[H]

>  <m_chem_types>  (41) 
1:backbone_n,2:backbone_c,3:backbone_n_mod,4:selenol

>  <m_activation_policy>  (41) 
canonical-sites-v1

$$$$

     RDKit          2D

  4  3  0  0  0  0  0  0  0  0999 V2000
   -1.2990   -0.7500    0.0000 R   0  0  0  0  0  1  0  0  0  0  0  0
    0.0000    0.0000    0.0000 C   0  0  0  0  0  0  0  0  0  0  0  0
    1.2990   -0.7500    0.0000 C   0  0  0  0  0  0  0  0  0  0  0  0
    0.0000    1.5000    0.0000 O   0  0  0  0  0  0  0  0  0  0  0  0
  1  2  1  0
  2  3  1  0
  2  4  2  0
M  ISO  1   1   2
M  END
>  <symbol>  (42) 
ac

>  <m_abbr>  (42) 
ac

>  <m_name>  (42) 
Acetyl cap

>  <m_type>  (42) 
cap

>  <m_subtype>  (42) 
cap

>  <m_Rgroups>  (42) 
None,[OH]

>  <m_chem_types>  (42) 
2:backbone_c

>  <m_activation_policy>  (42) 
canonical-sites-v1

$$$$

     RDKit          2D

  2  1  0  0  0  0  0  0  0  0999 V2000
   -0.7500    0.0000    0.0000 R   0  0  0  0  0  1  0  0  0  0  0  0
    0.7500   -0.0000    0.0000 N   0  0  0  0  0  0  0  0  0  0  0  0
  1  2  1  0
M  ISO  1   1   1
M  END
>  <symbol>  (43) 
am

>  <m_abbr>  (43) 
am

>  <m_name>  (43) 
Amide cap

>  <m_type>  (43) 
cap

>  <m_subtype>  (43) 
cap

>  <m_Rgroups>  (43) 
[H]

>  <m_chem_types>  (43) 
1:backbone_n

>  <m_activation_policy>  (43) 
canonical-sites-v1

$$$$

     RDKit          2D

 18 20  0  0  0  0  0  0  0  0999 V2000
   -5.4287    0.1119    0.0000 R   0  0  0  0  0  1  0  0  0  0  0  0
   -4.2153   -0.7700    0.0000 C   0  0  0  0  0  0  0  0  0  0  0  0
   -4.3724   -2.2617    0.0000 O   0  0  0  0  0  0  0  0  0  0  0  0
   -2.8449   -0.1601    0.0000 O   0  0  0  0  0  0  0  0  0  0  0  0
   -1.6315   -1.0420    0.0000 C   0  0  0  0  0  0  0  0  0  0  0  0
   -0.2611   -0.4322    0.0000 C   0  0  0  0  0  0  0  0  0  0  0  0
    1.0378   -1.1824    0.0000 C   0  0  0  0  0  0  0  0  0  0  0  0
    1.3494   -2.6497    0.0000 C   0  0  0  0  0  0  0  0  0  0  0  0
    2.7759   -3.1135    0.0000 C   0  0  0  0  0  0  0  0  0  0  0  0
    3.8908   -2.1100    0.0000 C   0  0  0  0  0  0  0  0  0  0  0  0
    3.5792   -0.6427    0.0000 C   0  0  0  0  0  0  0  0  0  0  0  0
    2.1527   -0.1789    0.0000 C   0  0  0  0  0  0  0  0  0  0  0  0
    1.5428    1.1915    0.0000 C   0  0  0  0  0  0  0  0  0  0  0  0
    2.1532    2.5617    0.0000 C   0  0  0  0  0  0  0  0  0  0  0  0
    1.2717    3.7754    0.0000 C   0  0  0  0  0  0  0  0  0  0  0  0
   -0.2201    3.6189    0.0000 C   0  0  0  0  0  0  0  0  0  0  0  0
   -0.8304    2.2487    0.0000 C   0  0  0  0  0  0  0  0  0  0  0  0
    0.0510    1.0350    0.0000 C   0  0  0  0  0  0  0  0  0  0  0  0
  1  2  1  0
  2  3  2  0
  2  4  1  0
  4  5  1  0
  5  6  1  0
  6  7  1  0
  7  8  2  0
  8  9  1  0
  9 10  2  0
 10 11  1  0
 11 12  2  0
 12 13  1  0
 13 14  2  0
 14 15  1  0
 15 16  2  0
 16 17  1  0
 17 18  2  0
 18  6  1  0
 12  7  1  0
 18 13  1  0
M  ISO  1   1   2
M  END
>  <symbol>  (44) 
fmoc

>  <m_abbr>  (44) 
fmoc

>  <m_name>  (44) 
Fmoc N-terminal cap

>  <m_type>  (44) 
cap

>  <m_subtype>  (44) 
cap

>  <m_Rgroups>  (44) 
None,[OH]

>  <m_chem_types>  (44) 
2:backbone_c

>  <m_activation_policy>  (44) 
canonical-sites-v1

$$$$

     RDKit          2D

  8  7  0  0  0  0  0  0  0  0999 V2000
    2.7538    0.8653    0.0000 R   0  0  0  0  0  1  0  0  0  0  0  0
    1.4606    0.1051    0.0000 C   0  0  0  0  0  0  0  0  0  0  0  0
    1.4723   -1.3948    0.0000 O   0  0  0  0  0  0  0  0  0  0  0  0
    0.1558    0.8450    0.0000 O   0  0  0  0  0  0  0  0  0  0  0  0
   -1.1374    0.0849    0.0000 C   0  0  0  0  0  0  0  0  0  0  0  0
   -1.8975    1.3780    0.0000 C   0  0  0  0  0  0  0  0  0  0  0  0
   -0.3772   -1.2083    0.0000 C   0  0  0  0  0  0  0  0  0  0  0  0
   -2.4305   -0.6752    0.0000 C   0  0  0  0  0  0  0  0  0  0  0  0
  1  2  1  0
  2  3  2  0
  2  4  1  0
  4  5  1  0
  5  6  1  0
  5  7  1  0
  5  8  1  0
M  ISO  1   1   2
M  END
>  <symbol>  (45) 
boc

>  <m_abbr>  (45) 
boc

>  <m_name>  (45) 
Boc sidechain amine cap

>  <m_type>  (45) 
cap

>  <m_subtype>  (45) 
cap

>  <m_Rgroups>  (45) 
None,[OH]

>  <m_chem_types>  (45) 
2:backbone_c

>  <m_activation_policy>  (45) 
canonical-sites-v1

$$$$

     RDKit          2D

  6  5  0  0  0  0  0  0  0  0999 V2000
   -2.1651    0.0000    0.0000 R   0  0  0  0  0  1  0  0  0  0  0  0
   -0.8660    0.7500    0.0000 O   0  0  0  0  0  0  0  0  0  0  0  0
    0.4330    0.0000    0.0000 C   0  0  0  0  0  0  0  0  0  0  0  0
    1.1830    1.2990    0.0000 C   0  0  0  0  0  0  0  0  0  0  0  0
   -0.3170   -1.2990    0.0000 C   0  0  0  0  0  0  0  0  0  0  0  0
    1.7321   -0.7500    0.0000 C   0  0  0  0  0  0  0  0  0  0  0  0
  1  2  1  0
  2  3  1  0
  3  4  1  0
  3  5  1  0
  3  6  1  0
M  ISO  1   1   1
M  END
>  <symbol>  (46) 
tbu

>  <m_abbr>  (46) 
tbu

>  <m_name>  (46) 
tBu ester sidechain cap

>  <m_type>  (46) 
cap

>  <m_subtype>  (46) 
cap

>  <m_Rgroups>  (46) 
[H]

>  <m_chem_types>  (46) 
1:backbone_o

>  <m_activation_policy>  (46) 
canonical-sites-v1

$$$$

     RDKit          2D

  6  5  0  0  0  0  0  0  0  0999 V2000
   -2.1651    0.0000    0.0000 R   0  0  0  0  0  1  0  0  0  0  0  0
   -0.8660    0.7500    0.0000 O   0  0  0  0  0  0  0  0  0  0  0  0
    0.4330    0.0000    0.0000 C   0  0  0  0  0  0  0  0  0  0  0  0
    1.1830    1.2990    0.0000 C   0  0  0  0  0  0  0  0  0  0  0  0
   -0.3170   -1.2990    0.0000 C   0  0  0  0  0  0  0  0  0  0  0  0
    1.7321   -0.7500    0.0000 C   0  0  0  0  0  0  0  0  0  0  0  0
  1  2  1  0
  2  3  1  0
  3  4  1  0
  3  5  1  0
  3  6  1  0
M  ISO  1   1   1
M  END
>  <symbol>  (47) 
otbu

>  <m_abbr>  (47) 
otbu

>  <m_name>  (47) 
tBu ether sidechain cap

>  <m_type>  (47) 
cap

>  <m_subtype>  (47) 
cap

>  <m_Rgroups>  (47) 
[H]

>  <m_chem_types>  (47) 
1:backbone_o

>  <m_activation_policy>  (47) 
canonical-sites-v1

$$$$

     RDKit          2D

 20 22  0  0  0  0  0  0  0  0999 V2000
    0.0000   -2.3250    0.0000 R   0  0  0  0  0  1  0  0  0  0  0  0
    0.0000   -0.8250    0.0000 C   0  0  0  0  0  0  0  0  0  0  0  0
   -0.0000    0.6750    0.0000 C   0  0  0  0  0  0  0  0  0  0  0  0
    1.2990    1.4250    0.0000 C   0  0  0  0  0  0  0  0  0  0  0  0
    1.2990    2.9250    0.0000 C   0  0  0  0  0  0  0  0  0  0  0  0
   -0.0000    3.6750    0.0000 C   0  0  0  0  0  0  0  0  0  0  0  0
   -1.2990    2.9250    0.0000 C   0  0  0  0  0  0  0  0  0  0  0  0
   -1.2990    1.4250    0.0000 C   0  0  0  0  0  0  0  0  0  0  0  0
    1.5000   -0.8250    0.0000 C   0  0  0  0  0  0  0  0  0  0  0  0
    2.2500   -2.1240    0.0000 C   0  0  0  0  0  0  0  0  0  0  0  0
    3.7500   -2.1240    0.0000 C   0  0  0  0  0  0  0  0  0  0  0  0
    4.5000   -0.8250    0.0000 C   0  0  0  0  0  0  0  0  0  0  0  0
    3.7500    0.4740    0.0000 C   0  0  0  0  0  0  0  0  0  0  0  0
    2.2500    0.4740    0.0000 C   0  0  0  0  0  0  0  0  0  0  0  0
   -1.5000   -0.8250    0.0000 C   0  0  0  0  0  0  0  0  0  0  0  0
   -2.2500    0.4740    0.0000 C   0  0  0  0  0  0  0  0  0  0  0  0
   -3.7500    0.4740    0.0000 C   0  0  0  0  0  0  0  0  0  0  0  0
   -4.5000   -0.8250    0.0000 C   0  0  0  0  0  0  0  0  0  0  0  0
   -3.7500   -2.1240    0.0000 C   0  0  0  0  0  0  0  0  0  0  0  0
   -2.2500   -2.1240    0.0000 C   0  0  0  0  0  0  0  0  0  0  0  0
  1  2  1  0
  2  3  1  0
  3  4  2  0
  4  5  1  0
  5  6  2  0
  6  7  1  0
  7  8  2  0
  2  9  1  0
  9 10  2  0
 10 11  1  0
 11 12  2  0
 12 13  1  0
 13 14  2  0
  2 15  1  0
 15 16  2  0
 16 17  1  0
 17 18  2  0
 18 19  1  0
 19 20  2  0
  8  3  1  0
 14  9  1  0
 20 15  1  0
M  ISO  1   1   2
M  END
>  <symbol>  (48) 
trt

>  <m_abbr>  (48) 
trt

>  <m_name>  (48) 
Trityl cap

>  <m_type>  (48) 
cap

>  <m_subtype>  (48) 
cap

>  <m_Rgroups>  (48) 
None,[Cl]

>  <m_chem_types>  (48) 
2:alkyl_halide_c

>  <m_activation_policy>  (48) 
canonical-sites-v1

$$$$

     RDKit          2D

  7  6  0  0  0  0  0  0  0  0999 V2000
    2.2500    0.5567    0.0000 R   0  0  0  0  0  1  0  0  0  0  0  0
    1.5000   -0.7423    0.0000 C   0  0  0  0  0  0  0  0  0  0  0  0
    0.0000   -0.7423    0.0000 N   0  0  0  0  0  0  0  0  0  0  0  0
   -0.7500   -2.0413    0.0000 R   0  0  0  0  0  1  0  0  0  0  0  0
   -0.7500    0.5567    0.0000 C   0  0  0  0  0  0  0  0  0  0  0  0
   -2.2500    0.5567    0.0000 C   0  0  0  0  0  0  0  0  0  0  0  0
   -0.0000    1.8558    0.0000 O   0  0  0  0  0  0  0  0  0  0  0  0
  1  2  1  0
  2  3  1  0
  3  4  1  0
  3  5  1  0
  5  6  1  0
  5  7  2  0
M  ISO  2   1   2   4   4
M  END
>  <symbol>  (49) 
acm

>  <m_abbr>  (49) 
acm

>  <m_name>  (49) 
Acetamidomethyl cap

>  <m_type>  (49) 
cap

>  <m_subtype>  (49) 
cap

>  <m_Rgroups>  (49) 
None,[Cl],None,[H]

>  <m_chem_types>  (49) 
2:alkyl_halide_c,4:amide_nh

>  <m_activation_policy>  (49) 
canonical-sites-v1

$$$$

     RDKit          2D

 18 19  0  0  0  0  0  0  0  0999 V2000
    4.4353   -1.1089    0.0000 R   0  0  0  0  0  1  0  0  0  0  0  0
    3.0143   -0.6286    0.0000 S   0  0  0  0  0  0  0  0  0  0  0  0
    3.4946    0.7924    0.0000 O   0  0  0  0  0  0  0  0  0  0  0  0
    2.5340   -2.0496    0.0000 O   0  0  0  0  0  0  0  0  0  0  0  0
    1.5933   -0.1483    0.0000 C   0  0  0  0  0  0  0  0  0  0  0  0
    1.2987    1.3225    0.0000 C   0  0  0  0  0  0  0  0  0  0  0  0
    2.4251    2.3130    0.0000 C   0  0  0  0  0  0  0  0  0  0  0  0
   -0.1224    1.8027    0.0000 C   0  0  0  0  0  0  0  0  0  0  0  0
   -0.4170    3.2735    0.0000 C   0  0  0  0  0  0  0  0  0  0  0  0
   -1.2488    0.8122    0.0000 C   0  0  0  0  0  0  0  0  0  0  0  0
   -0.9542   -0.6586    0.0000 C   0  0  0  0  0  0  0  0  0  0  0  0
    0.4668   -1.1388    0.0000 C   0  0  0  0  0  0  0  0  0  0  0  0
    0.7614   -2.6096    0.0000 C   0  0  0  0  0  0  0  0  0  0  0  0
   -2.2620   -1.3932    0.0000 C   0  0  0  0  0  0  0  0  0  0  0  0
   -3.3648   -0.3765    0.0000 C   0  0  0  0  0  0  0  0  0  0  0  0
   -4.2607   -1.5796    0.0000 C   0  0  0  0  0  0  0  0  0  0  0  0
   -4.6550    0.3887    0.0000 C   0  0  0  0  0  0  0  0  0  0  0  0
   -2.7386    0.9866    0.0000 O   0  0  0  0  0  0  0  0  0  0  0  0
  1  2  1  0
  2  3  2  0
  2  4  2  0
  2  5  1  0
  5  6  1  0
  6  7  1  0
  6  8  2  0
  8  9  1  0
  8 10  1  0
 10 11  2  0
 11 12  1  0
 12 13  1  0
 11 14  1  0
 14 15  1  0
 15 16  1  0
 15 17  1  0
 15 18  1  0
 12  5  2  0
 18 10  1  0
M  ISO  1   1   2
M  END
>  <symbol>  (50) 
pbf

>  <m_abbr>  (50) 
pbf

>  <m_name>  (50) 
Pbf Arg sidechain sulfonyl cap

>  <m_type>  (50) 
cap

>  <m_subtype>  (50) 
cap

>  <m_Rgroups>  (50) 
None,[OH]

>  <m_chem_types>  (50) 
2:sulfonyl_s

>  <m_activation_policy>  (50) 
canonical-sites-v1

$$$$

     RDKit          2D

  8  7  0  0  0  0  0  0  0  0999 V2000
   -1.2990    1.6875    0.0000 R   0  0  0  0  0  1  0  0  0  0  0  0
   -1.2990    0.1875    0.0000 N   0  0  0  0  0  0  0  0  0  0  0  0
   -2.5981   -0.5625    0.0000 R   0  0  0  0  0  1  0  0  0  0  0  0
    0.0000   -0.5625    0.0000 C   0  0  0  0  0  0  0  0  0  0  0  0
    0.0000   -2.0625    0.0000 C   0  0  0  0  0  0  0  0  0  0  0  0
    1.2990    0.1875    0.0000 C   0  0  0  0  0  0  0  0  0  0  0  0
    2.5981   -0.5625    0.0000 R   0  0  0  0  0  1  0  0  0  0  0  0
    1.2990    1.6875    0.0000 O   0  0  0  0  0  0  0  0  0  0  0  0
  1  2  1  0
  2  3  1  0
  2  4  1  0
  4  5  1  1
  4  6  1  0
  6  7  1  0
  6  8  2  0
M  ISO  3   1   1   3   3   7   2
M  END
>  <symbol>  (51) 
dA

>  <m_abbr>  (51) 
dA

>  <m_name>  (51) 
D-Alanine

>  <m_type>  (51) 
aa

>  <m_subtype>  (51) 
natural

>  <m_Rgroups>  (51) 
[H],[OH],[H]

>  <m_chem_types>  (51) 
1:backbone_n,2:backbone_c,3:backbone_n_mod

>  <m_activation_policy>  (51) 
canonical-sites-v1

$$$$

     RDKit          2D

 10  9  0  0  0  0  0  0  0  0999 V2000
   -1.5052    2.4340    0.0000 R   0  0  0  0  0  1  0  0  0  0  0  0
   -1.5385    0.9344    0.0000 N   0  0  0  0  0  0  0  0  0  0  0  0
   -2.8539    0.2134    0.0000 R   0  0  0  0  0  1  0  0  0  0  0  0
   -0.2564    0.1557    0.0000 C   0  0  0  0  0  0  0  0  0  0  0  0
    1.0589    0.8767    0.0000 C   0  0  0  0  0  0  0  0  0  0  0  0
    2.3410    0.0981    0.0000 S   0  0  0  0  0  0  0  0  0  0  0  0
    3.6564    0.8191    0.0000 R   0  0  0  0  0  1  0  0  0  0  0  0
   -0.2897   -1.3439    0.0000 C   0  0  0  0  0  0  0  0  0  0  0  0
    0.9924   -2.1225    0.0000 R   0  0  0  0  0  1  0  0  0  0  0  0
   -1.6051   -2.0649    0.0000 O   0  0  0  0  0  0  0  0  0  0  0  0
  1  2  1  0
  2  3  1  0
  2  4  1  0
  4  5  1  6
  5  6  1  0
  6  7  1  0
  4  8  1  0
  8  9  1  0
  8 10  2  0
M  ISO  4   1   1   3   3   7   4   9   2
M  END
>  <symbol>  (52) 
dC

>  <m_abbr>  (52) 
dC

>  <m_name>  (52) 
D-Cysteine

>  <m_type>  (52) 
aa

>  <m_subtype>  (52) 
natural

>  <m_Rgroups>  (52) 
[H],[OH],[H],[H]

>  <m_chem_types>  (52) 
1:backbone_n,2:backbone_c,3:backbone_n_mod,4:thiol

>  <m_activation_policy>  (52) 
canonical-sites-v1

$$$$

     RDKit          2D

 11 10  0  0  0  0  0  0  0  0999 V2000
   -3.0813    0.0866    0.0000 R   0  0  0  0  0  1  0  0  0  0  0  0
   -1.8784   -0.8095    0.0000 N   0  0  0  0  0  0  0  0  0  0  0  0
   -2.0531   -2.2993    0.0000 R   0  0  0  0  0  1  0  0  0  0  0  0
   -0.5009   -0.2159    0.0000 C   0  0  0  0  0  0  0  0  0  0  0  0
    0.7020   -1.1120    0.0000 C   0  0  0  0  0  0  0  0  0  0  0  0
    2.0795   -0.5184    0.0000 C   0  0  0  0  0  0  0  0  0  0  0  0
    3.2824   -1.4145    0.0000 R   0  0  0  0  0  1  0  0  0  0  0  0
    2.2541    0.9714    0.0000 O   0  0  0  0  0  0  0  0  0  0  0  0
   -0.3263    1.2739    0.0000 C   0  0  0  0  0  0  0  0  0  0  0  0
    1.0513    1.8676    0.0000 R   0  0  0  0  0  1  0  0  0  0  0  0
   -1.5291    2.1701    0.0000 O   0  0  0  0  0  0  0  0  0  0  0  0
  1  2  1  0
  2  3  1  0
  2  4  1  0
  4  5  1  1
  5  6  1  0
  6  7  1  0
  6  8  2  0
  4  9  1  0
  9 10  1  0
  9 11  2  0
M  ISO  4   1   1   3   3   7   4  10   2
M  END
>  <symbol>  (53) 
dD

>  <m_abbr>  (53) 
dD

>  <m_name>  (53) 
D-Aspartic acid

>  <m_type>  (53) 
aa

>  <m_subtype>  (53) 
natural

>  <m_Rgroups>  (53) 
[H],[OH],[H],[OH]

>  <m_chem_types>  (53) 
1:backbone_n,2:backbone_c,3:backbone_n_mod,4:carboxyl

>  <m_activation_policy>  (53) 
canonical-sites-v1

$$$$

     RDKit          2D

 12 11  0  0  0  0  0  0  0  0999 V2000
   -3.5281   -0.5638    0.0000 R   0  0  0  0  0  1  0  0  0  0  0  0
   -2.1179   -1.0748    0.0000 N   0  0  0  0  0  0  0  0  0  0  0  0
   -1.8553   -2.5517    0.0000 R   0  0  0  0  0  1  0  0  0  0  0  0
   -0.9702   -0.1090    0.0000 C   0  0  0  0  0  0  0  0  0  0  0  0
    0.4401   -0.6200    0.0000 C   0  0  0  0  0  0  0  0  0  0  0  0
    1.5878    0.3458    0.0000 C   0  0  0  0  0  0  0  0  0  0  0  0
    2.9981   -0.1653    0.0000 C   0  0  0  0  0  0  0  0  0  0  0  0
    4.1458    0.8005    0.0000 R   0  0  0  0  0  1  0  0  0  0  0  0
    3.2606   -1.6421    0.0000 O   0  0  0  0  0  0  0  0  0  0  0  0
   -1.2327    1.3678    0.0000 C   0  0  0  0  0  0  0  0  0  0  0  0
   -0.0850    2.3336    0.0000 R   0  0  0  0  0  1  0  0  0  0  0  0
   -2.6430    1.8789    0.0000 O   0  0  0  0  0  0  0  0  0  0  0  0
  1  2  1  0
  2  3  1  0
  2  4  1  0
  4  5  1  1
  5  6  1  0
  6  7  1  0
  7  8  1  0
  7  9  2  0
  4 10  1  0
 10 11  1  0
 10 12  2  0
M  ISO  4   1   1   3   3   8   4  11   2
M  END
>  <symbol>  (54) 
dE

>  <m_abbr>  (54) 
dE

>  <m_name>  (54) 
D-Glutamic acid

>  <m_type>  (54) 
aa

>  <m_subtype>  (54) 
natural

>  <m_Rgroups>  (54) 
[H],[OH],[H],[OH]

>  <m_chem_types>  (54) 
1:backbone_n,2:backbone_c,3:backbone_n_mod,4:carboxyl

>  <m_activation_policy>  (54) 
canonical-sites-v1

$$$$

     RDKit          2D

 14 14  0  0  0  0  0  0  0  0999 V2000
   -2.3413    2.2101    0.0000 R   0  0  0  0  0  1  0  0  0  0  0  0
   -1.1930    1.2450    0.0000 N   0  0  0  0  0  0  0  0  0  0  0  0
    0.2170    1.7569    0.0000 R   0  0  0  0  0  1  0  0  0  0  0  0
   -1.4546   -0.2320    0.0000 C   0  0  0  0  0  0  0  0  0  0  0  0
   -0.3063   -1.1971    0.0000 C   0  0  0  0  0  0  0  0  0  0  0  0
    1.1037   -0.6851    0.0000 C   0  0  0  0  0  0  0  0  0  0  0  0
    1.3653    0.7919    0.0000 C   0  0  0  0  0  0  0  0  0  0  0  0
    2.7752    1.3038    0.0000 C   0  0  0  0  0  0  0  0  0  0  0  0
    3.9235    0.3387    0.0000 C   0  0  0  0  0  0  0  0  0  0  0  0
    3.6619   -1.1383    0.0000 C   0  0  0  0  0  0  0  0  0  0  0  0
    2.2520   -1.6502    0.0000 C   0  0  0  0  0  0  0  0  0  0  0  0
   -2.8645   -0.7439    0.0000 C   0  0  0  0  0  0  0  0  0  0  0  0
   -4.0128    0.2211    0.0000 R   0  0  0  0  0  1  0  0  0  0  0  0
   -3.1261   -2.2209    0.0000 O   0  0  0  0  0  0  0  0  0  0  0  0
  1  2  1  0
  2  3  1  0
  2  4  1  0
  4  5  1  6
  5  6  1  0
  6  7  2  0
  7  8  1  0
  8  9  2  0
  9 10  1  0
 10 11  2  0
  4 12  1  0
 12 13  1  0
 12 14  2  0
 11  6  1  0
M  ISO  3   1   1   3   3  13   2
M  END
>  <symbol>  (55) 
dF

>  <m_abbr>  (55) 
dF

>  <m_name>  (55) 
D-Phenylalanine

>  <m_type>  (55) 
aa

>  <m_subtype>  (55) 
natural

>  <m_Rgroups>  (55) 
[H],[OH],[H]

>  <m_chem_types>  (55) 
1:backbone_n,2:backbone_c,3:backbone_n_mod

>  <m_activation_policy>  (55) 
canonical-sites-v1

$$$$

     RDKit          2D

 14 14  0  0  0  0  0  0  0  0999 V2000
   -2.5909    2.1279    0.0000 R   0  0  0  0  0  1  0  0  0  0  0  0
   -1.3801    1.2424    0.0000 N   0  0  0  0  0  0  0  0  0  0  0  0
   -0.0079    1.8482    0.0000 R   0  0  0  0  0  1  0  0  0  0  0  0
   -1.5416   -0.2489    0.0000 C   0  0  0  0  0  0  0  0  0  0  0  0
   -0.3309   -1.1344    0.0000 C   0  0  0  0  0  0  0  0  0  0  0  0
    1.0413   -0.5286    0.0000 C   0  0  0  0  0  0  0  0  0  0  0  0
    2.3380   -1.2827    0.0000 C   0  0  0  0  0  0  0  0  0  0  0  0
    3.4559   -0.2825    0.0000 N   0  0  0  0  0  0  0  0  0  0  0  0
    4.9221   -0.5990    0.0000 R   0  0  0  0  0  1  0  0  0  0  0  0
    2.8501    1.0897    0.0000 C   0  0  0  0  0  0  0  0  0  0  0  0
    1.3578    0.9376    0.0000 N   0  0  0  0  0  0  0  0  0  0  0  0
   -2.9139   -0.8547    0.0000 C   0  0  0  0  0  0  0  0  0  0  0  0
   -4.1246    0.0308    0.0000 R   0  0  0  0  0  1  0  0  0  0  0  0
   -3.0753   -2.3460    0.0000 O   0  0  0  0  0  0  0  0  0  0  0  0
  1  2  1  0
  2  3  1  0
  2  4  1  0
  4  5  1  6
  5  6  1  0
  6  7  2  0
  7  8  1  0
  8  9  1  0
  8 10  1  0
 10 11  2  0
  4 12  1  0
 12 13  1  0
 12 14  2  0
 11  6  1  0
M  ISO  4   1   1   3   3   9   4  13   2
M  END
>  <symbol>  (56) 
dH

>  <m_abbr>  (56) 
dH

>  <m_name>  (56) 
D-Histidine

>  <m_type>  (56) 
aa

>  <m_subtype>  (56) 
natural

>  <m_Rgroups>  (56) 
[H],[OH],[H],[H]

>  <m_chem_types>  (56) 
1:backbone_n,2:backbone_c,3:backbone_n_mod,4:aromatic_nh

>  <m_activation_policy>  (56) 
canonical-sites-v1

$$$$

     RDKit          2D

 11 10  0  0  0  0  0  0  0  0999 V2000
   -2.0616   -1.9640    0.0000 R   0  0  0  0  0  1  0  0  0  0  0  0
   -0.6443   -1.4730    0.0000 N   0  0  0  0  0  0  0  0  0  0  0  0
    0.4896   -2.4550    0.0000 R   0  0  0  0  0  1  0  0  0  0  0  0
   -0.3608    0.0000    0.0000 C   0  0  0  0  0  0  0  0  0  0  0  0
   -1.4947    0.9820    0.0000 C   0  0  0  0  0  0  0  0  0  0  0  0
   -1.2112    2.4550    0.0000 R   0  0  0  0  0  1  0  0  0  0  0  0
   -2.9120    0.4910    0.0000 O   0  0  0  0  0  0  0  0  0  0  0  0
    1.0566    0.4910    0.0000 C   0  0  0  0  0  0  0  0  0  0  0  0
    1.3401    1.9640    0.0000 C   0  0  0  0  0  0  0  0  0  0  0  0
    2.1905   -0.4910    0.0000 C   0  0  0  0  0  0  0  0  0  0  0  0
    3.6078   -0.0000    0.0000 C   0  0  0  0  0  0  0  0  0  0  0  0
  1  2  1  0
  2  3  1  0
  4  2  1  1
  4  5  1  0
  5  6  1  0
  5  7  2  0
  4  8  1  0
  8  9  1  6
  8 10  1  0
 10 11  1  0
M  ISO  3   1   1   3   3   6   2
M  END
>  <symbol>  (57) 
dI

>  <m_abbr>  (57) 
dI

>  <m_name>  (57) 
D-Isoleucine

>  <m_type>  (57) 
aa

>  <m_subtype>  (57) 
natural

>  <m_Rgroups>  (57) 
[H],[OH],[H]

>  <m_chem_types>  (57) 
1:backbone_n,2:backbone_c,3:backbone_n_mod

>  <m_activation_policy>  (57) 
canonical-sites-v1

$$$$

     RDKit          2D

 14 13  0  0  0  0  0  0  0  0999 V2000
   -4.6155   -0.4823    0.0000 R   0  0  0  0  0  1  0  0  0  0  0  0
   -3.2318   -1.0614    0.0000 N   0  0  0  0  0  0  0  0  0  0  0  0
   -3.0416   -2.5493    0.0000 R   0  0  0  0  0  1  0  0  0  0  0  0
   -2.0384   -0.1527    0.0000 C   0  0  0  0  0  0  0  0  0  0  0  0
   -0.6548   -0.7318    0.0000 C   0  0  0  0  0  0  0  0  0  0  0  0
    0.5386    0.1769    0.0000 C   0  0  0  0  0  0  0  0  0  0  0  0
    1.9223   -0.4023    0.0000 C   0  0  0  0  0  0  0  0  0  0  0  0
    3.1157    0.5065    0.0000 C   0  0  0  0  0  0  0  0  0  0  0  0
    4.4994   -0.0727    0.0000 N   0  0  0  0  0  0  0  0  0  0  0  0
    5.6928    0.8361    0.0000 R   0  0  0  0  0  1  0  0  0  0  0  0
    4.6897   -1.5606    0.0000 R   0  0  0  0  0  1  0  0  0  0  0  0
   -2.2287    1.3352    0.0000 C   0  0  0  0  0  0  0  0  0  0  0  0
   -1.0353    2.2439    0.0000 R   0  0  0  0  0  1  0  0  0  0  0  0
   -3.6124    1.9144    0.0000 O   0  0  0  0  0  0  0  0  0  0  0  0
  1  2  1  0
  2  3  1  0
  2  4  1  0
  4  5  1  1
  5  6  1  0
  6  7  1  0
  7  8  1  0
  8  9  1  0
  9 10  1  0
  9 11  1  0
  4 12  1  0
 12 13  1  0
 12 14  2  0
M  ISO  5   1   1   3   3  10   4  11   5  13   2
M  END
>  <symbol>  (58) 
dK

>  <m_abbr>  (58) 
dK

>  <m_name>  (58) 
D-Lysine

>  <m_type>  (58) 
aa

>  <m_subtype>  (58) 
natural

>  <m_Rgroups>  (58) 
[H],[OH],[H],[H],[H]

>  <m_chem_types>  (58) 
1:backbone_n,2:backbone_c,3:backbone_n_mod,4:amine_primary,5:amine_primary

>  <m_activation_policy>  (58) 
canonical-sites-v1

$$$$

     RDKit          2D

 11 10  0  0  0  0  0  0  0  0999 V2000
   -3.0813    0.0866    0.0000 R   0  0  0  0  0  1  0  0  0  0  0  0
   -1.8784   -0.8095    0.0000 N   0  0  0  0  0  0  0  0  0  0  0  0
   -2.0531   -2.2993    0.0000 R   0  0  0  0  0  1  0  0  0  0  0  0
   -0.5009   -0.2159    0.0000 C   0  0  0  0  0  0  0  0  0  0  0  0
    0.7020   -1.1120    0.0000 C   0  0  0  0  0  0  0  0  0  0  0  0
    2.0795   -0.5184    0.0000 C   0  0  0  0  0  0  0  0  0  0  0  0
    3.2824   -1.4145    0.0000 C   0  0  0  0  0  0  0  0  0  0  0  0
    2.2541    0.9714    0.0000 C   0  0  0  0  0  0  0  0  0  0  0  0
   -0.3263    1.2739    0.0000 C   0  0  0  0  0  0  0  0  0  0  0  0
    1.0513    1.8676    0.0000 R   0  0  0  0  0  1  0  0  0  0  0  0
   -1.5291    2.1701    0.0000 O   0  0  0  0  0  0  0  0  0  0  0  0
  1  2  1  0
  2  3  1  0
  2  4  1  0
  4  5  1  1
  5  6  1  0
  6  7  1  0
  6  8  1  0
  4  9  1  0
  9 10  1  0
  9 11  2  0
M  ISO  3   1   1   3   3  10   2
M  END
>  <symbol>  (59) 
dL

>  <m_abbr>  (59) 
dL

>  <m_name>  (59) 
D-Leucine

>  <m_type>  (59) 
aa

>  <m_subtype>  (59) 
natural

>  <m_Rgroups>  (59) 
[H],[OH],[H]

>  <m_chem_types>  (59) 
1:backbone_n,2:backbone_c,3:backbone_n_mod

>  <m_activation_policy>  (59) 
canonical-sites-v1

$$$$

     RDKit          2D

 11 10  0  0  0  0  0  0  0  0999 V2000
   -3.3018   -0.2248    0.0000 R   0  0  0  0  0  1  0  0  0  0  0  0
   -1.9832   -0.9398    0.0000 N   0  0  0  0  0  0  0  0  0  0  0  0
   -1.9430   -2.4392    0.0000 R   0  0  0  0  0  1  0  0  0  0  0  0
   -0.7047   -0.1553    0.0000 C   0  0  0  0  0  0  0  0  0  0  0  0
    0.6140   -0.8702    0.0000 C   0  0  0  0  0  0  0  0  0  0  0  0
    1.8925   -0.0858    0.0000 C   0  0  0  0  0  0  0  0  0  0  0  0
    3.2111   -0.8007    0.0000 S   0  0  0  0  0  0  0  0  0  0  0  0
    4.4896   -0.0162    0.0000 C   0  0  0  0  0  0  0  0  0  0  0  0
   -0.7448    1.3442    0.0000 C   0  0  0  0  0  0  0  0  0  0  0  0
    0.5337    2.1287    0.0000 R   0  0  0  0  0  1  0  0  0  0  0  0
   -2.0634    2.0592    0.0000 O   0  0  0  0  0  0  0  0  0  0  0  0
  1  2  1  0
  2  3  1  0
  2  4  1  0
  4  5  1  1
  5  6  1  0
  6  7  1  0
  7  8  1  0
  4  9  1  0
  9 10  1  0
  9 11  2  0
M  ISO  3   1   1   3   3  10   2
M  END
>  <symbol>  (60) 
dM

>  <m_abbr>  (60) 
dM

>  <m_name>  (60) 
D-Methionine

>  <m_type>  (60) 
aa

>  <m_subtype>  (60) 
natural

>  <m_Rgroups>  (60) 
[H],[OH],[H]

>  <m_chem_types>  (60) 
1:backbone_n,2:backbone_c,3:backbone_n_mod

>  <m_activation_policy>  (60) 
canonical-sites-v1

$$$$

     RDKit          2D

 13 12  0  0  0  0  0  0  0  0999 V2000
   -3.6603   -0.5247    0.0000 R   0  0  0  0  0  1  0  0  0  0  0  0
   -2.2769   -1.1044    0.0000 N   0  0  0  0  0  0  0  0  0  0  0  0
   -2.0872   -2.5924    0.0000 R   0  0  0  0  0  1  0  0  0  0  0  0
   -1.0831   -0.1962    0.0000 C   0  0  0  0  0  0  0  0  0  0  0  0
    0.3004   -0.7759    0.0000 C   0  0  0  0  0  0  0  0  0  0  0  0
    1.4942    0.1323    0.0000 C   0  0  0  0  0  0  0  0  0  0  0  0
    1.3045    1.6202    0.0000 O   0  0  0  0  0  0  0  0  0  0  0  0
    2.8776   -0.4475    0.0000 N   0  0  0  0  0  0  0  0  0  0  0  0
    4.0714    0.4608    0.0000 R   0  0  0  0  0  1  0  0  0  0  0  0
    3.0672   -1.9354    0.0000 R   0  0  0  0  0  1  0  0  0  0  0  0
   -1.2727    1.2918    0.0000 C   0  0  0  0  0  0  0  0  0  0  0  0
   -0.0789    2.2000    0.0000 R   0  0  0  0  0  1  0  0  0  0  0  0
   -2.6562    1.8715    0.0000 O   0  0  0  0  0  0  0  0  0  0  0  0
  1  2  1  0
  2  3  1  0
  2  4  1  0
  4  5  1  1
  5  6  1  0
  6  7  2  0
  6  8  1  0
  8  9  1  0
  8 10  1  0
  4 11  1  0
 11 12  1  0
 11 13  2  0
M  ISO  5   1   1   3   3   9   4  10   5  12   2
M  END
>  <symbol>  (61) 
dN

>  <m_abbr>  (61) 
dN

>  <m_name>  (61) 
D-Asparagine

>  <m_type>  (61) 
aa

>  <m_subtype>  (61) 
natural

>  <m_Rgroups>  (61) 
[H],[OH],[H],[H],[H]

>  <m_chem_types>  (61) 
1:backbone_n,2:backbone_c,3:backbone_n_mod,4:amide_nh,5:amide_nh

>  <m_activation_policy>  (61) 
canonical-sites-v1

$$$$

     RDKit          2D

  9  9  0  0  0  0  0  0  0  0999 V2000
    0.5115   -2.3139    0.0000 R   0  0  0  0  0  1  0  0  0  0  0  0
    0.8624   -0.8555    0.0000 N   0  0  0  0  0  0  0  0  0  0  0  0
    2.2485   -0.2821    0.0000 C   0  0  0  0  0  0  0  0  0  0  0  0
    2.1314    1.2133    0.0000 C   0  0  0  0  0  0  0  0  0  0  0  0
    0.6730    1.5641    0.0000 C   0  0  0  0  0  0  0  0  0  0  0  0
   -0.1113    0.2855    0.0000 C   0  0  0  0  0  0  0  0  0  0  0  0
   -1.6067    0.1685    0.0000 C   0  0  0  0  0  0  0  0  0  0  0  0
   -2.4558    1.4051    0.0000 R   0  0  0  0  0  1  0  0  0  0  0  0
   -2.2531   -1.1851    0.0000 O   0  0  0  0  0  0  0  0  0  0  0  0
  1  2  1  0
  2  3  1  0
  3  4  1  0
  4  5  1  0
  5  6  1  0
  6  7  1  1
  7  8  1  0
  7  9  2  0
  6  2  1  0
M  ISO  2   1   1   8   2
M  END
>  <symbol>  (62) 
dP

>  <m_abbr>  (62) 
dP

>  <m_name>  (62) 
D-Proline

>  <m_type>  (62) 
aa

>  <m_subtype>  (62) 
natural

>  <m_Rgroups>  (62) 
[H],[OH]

>  <m_chem_types>  (62) 
1:backbone_n,2:backbone_c

>  <m_activation_policy>  (62) 
canonical-sites-v1

$$$$

     RDKit          2D

 14 13  0  0  0  0  0  0  0  0999 V2000
   -4.2577   -0.3004    0.0000 R   0  0  0  0  0  1  0  0  0  0  0  0
   -2.9091   -0.9571    0.0000 N   0  0  0  0  0  0  0  0  0  0  0  0
   -2.8035   -2.4534    0.0000 R   0  0  0  0  0  1  0  0  0  0  0  0
   -1.6661   -0.1175    0.0000 C   0  0  0  0  0  0  0  0  0  0  0  0
   -0.3175   -0.7743    0.0000 C   0  0  0  0  0  0  0  0  0  0  0  0
    0.9256    0.0653    0.0000 C   0  0  0  0  0  0  0  0  0  0  0  0
    2.2742   -0.5914    0.0000 C   0  0  0  0  0  0  0  0  0  0  0  0
    2.3797   -2.0877    0.0000 O   0  0  0  0  0  0  0  0  0  0  0  0
    3.5172    0.2481    0.0000 N   0  0  0  0  0  0  0  0  0  0  0  0
    4.8658   -0.4086    0.0000 R   0  0  0  0  0  1  0  0  0  0  0  0
    3.4117    1.7444    0.0000 R   0  0  0  0  0  1  0  0  0  0  0  0
   -1.7716    1.3787    0.0000 C   0  0  0  0  0  0  0  0  0  0  0  0
   -0.5286    2.2183    0.0000 R   0  0  0  0  0  1  0  0  0  0  0  0
   -3.1202    2.0355    0.0000 O   0  0  0  0  0  0  0  0  0  0  0  0
  1  2  1  0
  2  3  1  0
  2  4  1  0
  4  5  1  1
  5  6  1  0
  6  7  1  0
  7  8  2  0
  7  9  1  0
  9 10  1  0
  9 11  1  0
  4 12  1  0
 12 13  1  0
 12 14  2  0
M  ISO  5   1   1   3   3  10   4  11   5  13   2
M  END
>  <symbol>  (63) 
dQ

>  <m_abbr>  (63) 
dQ

>  <m_name>  (63) 
D-Glutamine

>  <m_type>  (63) 
aa

>  <m_subtype>  (63) 
natural

>  <m_Rgroups>  (63) 
[H],[OH],[H],[H],[H]

>  <m_chem_types>  (63) 
1:backbone_n,2:backbone_c,3:backbone_n_mod,4:amide_nh,5:amide_nh

>  <m_activation_policy>  (63) 
canonical-sites-v1

$$$$

     RDKit          2D

 10  9  0  0  0  0  0  0  0  0999 V2000
   -2.8539   -0.2134    0.0000 R   0  0  0  0  0  1  0  0  0  0  0  0
   -1.5385   -0.9344    0.0000 N   0  0  0  0  0  0  0  0  0  0  0  0
   -1.5052   -2.4340    0.0000 R   0  0  0  0  0  1  0  0  0  0  0  0
   -0.2564   -0.1557    0.0000 C   0  0  0  0  0  0  0  0  0  0  0  0
    1.0589   -0.8767    0.0000 C   0  0  0  0  0  0  0  0  0  0  0  0
    2.3410   -0.0981    0.0000 O   0  0  0  0  0  0  0  0  0  0  0  0
    3.6564   -0.8191    0.0000 R   0  0  0  0  0  1  0  0  0  0  0  0
   -0.2897    1.3439    0.0000 C   0  0  0  0  0  0  0  0  0  0  0  0
    0.9924    2.1225    0.0000 R   0  0  0  0  0  1  0  0  0  0  0  0
   -1.6051    2.0649    0.0000 O   0  0  0  0  0  0  0  0  0  0  0  0
  1  2  1  0
  2  3  1  0
  2  4  1  0
  4  5  1  1
  5  6  1  0
  6  7  1  0
  4  8  1  0
  8  9  1  0
  8 10  2  0
M  ISO  4   1   1   3   3   7   4   9   2
M  END
>  <symbol>  (64) 
dS

>  <m_abbr>  (64) 
dS

>  <m_name>  (64) 
D-Serine

>  <m_type>  (64) 
aa

>  <m_subtype>  (64) 
natural

>  <m_Rgroups>  (64) 
[H],[OH],[H],[H]

>  <m_chem_types>  (64) 
1:backbone_n,2:backbone_c,3:backbone_n_mod,4:hydroxyl

>  <m_activation_policy>  (64) 
canonical-sites-v1

$$$$

     RDKit          2D

 11 10  0  0  0  0  0  0  0  0999 V2000
   -2.0616   -1.9640    0.0000 R   0  0  0  0  0  1  0  0  0  0  0  0
   -0.6443   -1.4730    0.0000 N   0  0  0  0  0  0  0  0  0  0  0  0
    0.4896   -2.4550    0.0000 R   0  0  0  0  0  1  0  0  0  0  0  0
   -0.3608    0.0000    0.0000 C   0  0  0  0  0  0  0  0  0  0  0  0
   -1.4947    0.9820    0.0000 C   0  0  0  0  0  0  0  0  0  0  0  0
   -1.2112    2.4550    0.0000 R   0  0  0  0  0  1  0  0  0  0  0  0
   -2.9120    0.4910    0.0000 O   0  0  0  0  0  0  0  0  0  0  0  0
    1.0566    0.4910    0.0000 C   0  0  0  0  0  0  0  0  0  0  0  0
    1.3401    1.9640    0.0000 C   0  0  0  0  0  0  0  0  0  0  0  0
    2.1905   -0.4910    0.0000 O   0  0  0  0  0  0  0  0  0  0  0  0
    3.6078   -0.0000    0.0000 R   0  0  0  0  0  1  0  0  0  0  0  0
  1  2  1  0
  2  3  1  0
  4  2  1  1
  4  5  1  0
  5  6  1  0
  5  7  2  0
  4  8  1  0
  8  9  1  6
  8 10  1  0
 10 11  1  0
M  ISO  4   1   1   3   3   6   2  11   4
M  END
>  <symbol>  (65) 
dT

>  <m_abbr>  (65) 
dT

>  <m_name>  (65) 
D-Threonine

>  <m_type>  (65) 
aa

>  <m_subtype>  (65) 
natural

>  <m_Rgroups>  (65) 
[H],[OH],[H],[H]

>  <m_chem_types>  (65) 
1:backbone_n,2:backbone_c,3:backbone_n_mod,4:hydroxyl

>  <m_activation_policy>  (65) 
canonical-sites-v1

$$$$

     RDKit          2D

 10  9  0  0  0  0  0  0  0  0999 V2000
   -1.2990   -2.2500    0.0000 R   0  0  0  0  0  1  0  0  0  0  0  0
    0.0000   -1.5000    0.0000 N   0  0  0  0  0  0  0  0  0  0  0  0
    1.2990   -2.2500    0.0000 R   0  0  0  0  0  1  0  0  0  0  0  0
    0.0000    0.0000    0.0000 C   0  0  0  0  0  0  0  0  0  0  0  0
   -1.2990    0.7500    0.0000 C   0  0  0  0  0  0  0  0  0  0  0  0
   -1.2990    2.2500    0.0000 R   0  0  0  0  0  1  0  0  0  0  0  0
   -2.5981   -0.0000    0.0000 O   0  0  0  0  0  0  0  0  0  0  0  0
    1.2990    0.7500    0.0000 C   0  0  0  0  0  0  0  0  0  0  0  0
    1.2990    2.2500    0.0000 C   0  0  0  0  0  0  0  0  0  0  0  0
    2.5981    0.0000    0.0000 C   0  0  0  0  0  0  0  0  0  0  0  0
  1  2  1  0
  2  3  1  0
  2  4  1  0
  4  5  1  0
  5  6  1  0
  5  7  2  0
  4  8  1  1
  8  9  1  0
  8 10  1  0
M  ISO  3   1   1   3   3   6   2
M  END
>  <symbol>  (66) 
dV

>  <m_abbr>  (66) 
dV

>  <m_name>  (66) 
D-Valine

>  <m_type>  (66) 
aa

>  <m_subtype>  (66) 
natural

>  <m_Rgroups>  (66) 
[H],[OH],[H]

>  <m_chem_types>  (66) 
1:backbone_n,2:backbone_c,3:backbone_n_mod

>  <m_activation_policy>  (66) 
canonical-sites-v1

$$$$

     RDKit          2D

 18 19  0  0  0  0  0  0  0  0999 V2000
   -3.8349   -1.8005    0.0000 R   0  0  0  0  0  1  0  0  0  0  0  0
   -2.4851   -1.1463    0.0000 N   0  0  0  0  0  0  0  0  0  0  0  0
   -1.2436   -1.9882    0.0000 R   0  0  0  0  0  1  0  0  0  0  0  0
   -2.3767    0.3497    0.0000 C   0  0  0  0  0  0  0  0  0  0  0  0
   -1.0269    1.0039    0.0000 C   0  0  0  0  0  0  0  0  0  0  0  0
    0.2146    0.1620    0.0000 C   0  0  0  0  0  0  0  0  0  0  0  0
    0.2632   -1.3372    0.0000 C   0  0  0  0  0  0  0  0  0  0  0  0
    1.7040   -1.7543    0.0000 N   0  0  0  0  0  0  0  0  0  0  0  0
    2.2135   -3.1651    0.0000 R   0  0  0  0  0  1  0  0  0  0  0  0
    2.5459   -0.5128    0.0000 C   0  0  0  0  0  0  0  0  0  0  0  0
    4.0318   -0.3078    0.0000 C   0  0  0  0  0  0  0  0  0  0  0  0
    4.5972    1.0816    0.0000 C   0  0  0  0  0  0  0  0  0  0  0  0
    3.6767    2.2659    0.0000 C   0  0  0  0  0  0  0  0  0  0  0  0
    2.1908    2.0609    0.0000 C   0  0  0  0  0  0  0  0  0  0  0  0
    1.6254    0.6715    0.0000 C   0  0  0  0  0  0  0  0  0  0  0  0
   -3.6182    1.1916    0.0000 C   0  0  0  0  0  0  0  0  0  0  0  0
   -4.9680    0.5375    0.0000 R   0  0  0  0  0  1  0  0  0  0  0  0
   -3.5098    2.6877    0.0000 O   0  0  0  0  0  0  0  0  0  0  0  0
  1  2  1  0
  2  3  1  0
  2  4  1  0
  4  5  1  1
  5  6  1  0
  6  7  2  0
  7  8  1  0
  8  9  1  0
  8 10  1  0
 10 11  2  0
 11 12  1  0
 12 13  2  0
 13 14  1  0
 14 15  2  0
  4 16  1  0
 16 17  1  0
 16 18  2  0
 15  6  1  0
 15 10  1  0
M  ISO  4   1   1   3   3   9   4  17   2
M  END
>  <symbol>  (67) 
dW

>  <m_abbr>  (67) 
dW

>  <m_name>  (67) 
D-Tryptophan

>  <m_type>  (67) 
aa

>  <m_subtype>  (67) 
natural

>  <m_Rgroups>  (67) 
[H],[OH],[H],[H]

>  <m_chem_types>  (67) 
1:backbone_n,2:backbone_c,3:backbone_n_mod,4:aromatic_nh

>  <m_activation_policy>  (67) 
canonical-sites-v1

$$$$

     RDKit          2D

 16 16  0  0  0  0  0  0  0  0999 V2000
   -3.0227    2.2431    0.0000 R   0  0  0  0  0  1  0  0  0  0  0  0
   -1.8997    1.2486    0.0000 N   0  0  0  0  0  0  0  0  0  0  0  0
   -0.4770    1.7239    0.0000 R   0  0  0  0  0  1  0  0  0  0  0  0
   -2.1995   -0.2211    0.0000 C   0  0  0  0  0  0  0  0  0  0  0  0
   -1.0766   -1.2156    0.0000 C   0  0  0  0  0  0  0  0  0  0  0  0
    0.3462   -0.7404    0.0000 C   0  0  0  0  0  0  0  0  0  0  0  0
    0.6459    0.7294    0.0000 C   0  0  0  0  0  0  0  0  0  0  0  0
    2.0687    1.2046    0.0000 C   0  0  0  0  0  0  0  0  0  0  0  0
    3.1916    0.2101    0.0000 C   0  0  0  0  0  0  0  0  0  0  0  0
    4.6143    0.6854    0.0000 O   0  0  0  0  0  0  0  0  0  0  0  0
    5.7373   -0.3091    0.0000 R   0  0  0  0  0  1  0  0  0  0  0  0
    2.8918   -1.2596    0.0000 C   0  0  0  0  0  0  0  0  0  0  0  0
    1.4691   -1.7348    0.0000 C   0  0  0  0  0  0  0  0  0  0  0  0
   -3.6222   -0.6964    0.0000 C   0  0  0  0  0  0  0  0  0  0  0  0
   -4.7452    0.2981    0.0000 R   0  0  0  0  0  1  0  0  0  0  0  0
   -3.9220   -2.1661    0.0000 O   0  0  0  0  0  0  0  0  0  0  0  0
  1  2  1  0
  2  3  1  0
  2  4  1  0
  4  5  1  6
  5  6  1  0
  6  7  1  0
  7  8  2  0
  8  9  1  0
  9 10  1  0
 10 11  1  0
  9 12  2  0
 12 13  1  0
  4 14  1  0
 14 15  1  0
 14 16  2  0
 13  6  2  0
M  ISO  4   1   1   3   3  11   4  15   2
M  END
>  <symbol>  (68) 
dY

>  <m_abbr>  (68) 
dY

>  <m_name>  (68) 
D-Tyrosine

>  <m_type>  (68) 
aa

>  <m_subtype>  (68) 
natural

>  <m_Rgroups>  (68) 
[H],[OH],[H],[H]

>  <m_chem_types>  (68) 
1:backbone_n,2:backbone_c,3:backbone_n_mod,4:aryl_phenol_o

>  <m_activation_policy>  (68) 
canonical-sites-v1

$$$$

     RDKit          2D

  2  1  0  0  0  0  0  0  0  0999 V2000
   -0.7500    0.0000    0.0000 R   0  0  0  0  0  1  0  0  0  0  0  0
    0.7500   -0.0000    0.0000 C   0  0  0  0  0  0  0  0  0  0  0  0
  1  2  1  0
M  ISO  1   1   2
M  END
>  <symbol>  (69) 
_Me

>  <m_abbr>  (69) 
_Me

>  <m_name>  (69) 
C-Terminal methyl

>  <m_type>  (69) 
cap

>  <m_subtype>  (69) 
cap

>  <m_Rgroups>  (69) 
None,[I]

>  <m_chem_types>  (69) 
2:alkyl_halide_c

>  <m_activation_policy>  (69) 
canonical-sites-v1

$$$$

     RDKit          2D

 10  9  0  0  0  0  0  0  0  0999 V2000
   -2.0677    1.5945    0.0000 R   0  0  0  0  0  1  0  0  0  0  0  0
   -1.6378    0.1574    0.0000 N   0  0  0  0  0  0  0  0  0  0  0  0
   -2.6675   -0.9334    0.0000 R   0  0  0  0  0  1  0  0  0  0  0  0
   -0.1783   -0.1889    0.0000 C   0  0  0  0  0  0  0  0  0  0  0  0
   -0.5246   -1.6484    0.0000 C   0  0  0  0  0  0  0  0  0  0  0  0
    0.1680    1.2705    0.0000 C   0  0  0  0  0  0  0  0  0  0  0  0
    1.6050    1.7004    0.0000 C   0  0  0  0  0  0  0  0  0  0  0  0
    1.2811   -0.5352    0.0000 C   0  0  0  0  0  0  0  0  0  0  0  0
    2.3108    0.5556    0.0000 R   0  0  0  0  0  1  0  0  0  0  0  0
    1.7110   -1.9723    0.0000 O   0  0  0  0  0  0  0  0  0  0  0  0
  1  2  1  0
  2  3  1  0
  2  4  1  0
  4  5  1  6
  4  6  1  0
  6  7  1  0
  4  8  1  0
  8  9  1  0
  8 10  2  0
M  ISO  3   1   1   3   3   9   2
M  END
>  <symbol>  (70) 
Iva

>  <m_abbr>  (70) 
Iva

>  <m_name>  (70) 
Isovaline

>  <m_type>  (70) 
aa

>  <m_subtype>  (70) 
natural

>  <m_Rgroups>  (70) 
[H],[OH],[H]

>  <m_chem_types>  (70) 
1:backbone_n,2:backbone_c,3:backbone_n_mod

>  <m_activation_policy>  (70) 
canonical-sites-v1

$$$$

     RDKit          2D

 11 10  0  0  0  0  0  0  0  0999 V2000
   -2.0616   -1.9640    0.0000 R   0  0  0  0  0  1  0  0  0  0  0  0
   -0.6443   -1.4730    0.0000 N   0  0  0  0  0  0  0  0  0  0  0  0
    0.4896   -2.4550    0.0000 R   0  0  0  0  0  1  0  0  0  0  0  0
   -0.3608    0.0000    0.0000 C   0  0  0  0  0  0  0  0  0  0  0  0
   -1.4947    0.9820    0.0000 C   0  0  0  0  0  0  0  0  0  0  0  0
   -1.2112    2.4550    0.0000 R   0  0  0  0  0  1  0  0  0  0  0  0
   -2.9120    0.4910    0.0000 O   0  0  0  0  0  0  0  0  0  0  0  0
    1.0566    0.4910    0.0000 C   0  0  0  0  0  0  0  0  0  0  0  0
    1.3401    1.9640    0.0000 C   0  0  0  0  0  0  0  0  0  0  0  0
    2.1905   -0.4910    0.0000 C   0  0  0  0  0  0  0  0  0  0  0  0
    3.6078   -0.0000    0.0000 C   0  0  0  0  0  0  0  0  0  0  0  0
  1  2  1  0
  2  3  1  0
  4  2  1  6
  4  5  1  0
  5  6  1  0
  5  7  2  0
  4  8  1  0
  8  9  1  6
  8 10  1  0
 10 11  1  0
M  ISO  3   1   1   3   3   6   2
M  END
>  <symbol>  (71) 
aIle

>  <m_abbr>  (71) 
aIle

>  <m_name>  (71) 
L-allo-Isoleucine

>  <m_type>  (71) 
aa

>  <m_subtype>  (71) 
natural

>  <m_Rgroups>  (71) 
[H],[OH],[H]

>  <m_chem_types>  (71) 
1:backbone_n,2:backbone_c,3:backbone_n_mod

>  <m_activation_policy>  (71) 
canonical-sites-v1

$$$$

     RDKit          2D

 11 10  0  0  0  0  0  0  0  0999 V2000
   -3.3018   -0.2248    0.0000 R   0  0  0  0  0  1  0  0  0  0  0  0
   -1.9832   -0.9398    0.0000 N   0  0  0  0  0  0  0  0  0  0  0  0
   -1.9430   -2.4392    0.0000 R   0  0  0  0  0  1  0  0  0  0  0  0
   -0.7047   -0.1553    0.0000 C   0  0  0  0  0  0  0  0  0  0  0  0
    0.6140   -0.8702    0.0000 C   0  0  0  0  0  0  0  0  0  0  0  0
    1.8925   -0.0858    0.0000 C   0  0  0  0  0  0  0  0  0  0  0  0
    3.2111   -0.8007    0.0000 S   0  0  0  0  0  0  0  0  0  0  0  0
    4.4896   -0.0162    0.0000 R   0  0  0  0  0  1  0  0  0  0  0  0
   -0.7448    1.3442    0.0000 C   0  0  0  0  0  0  0  0  0  0  0  0
    0.5337    2.1287    0.0000 R   0  0  0  0  0  1  0  0  0  0  0  0
   -2.0634    2.0592    0.0000 O   0  0  0  0  0  0  0  0  0  0  0  0
  1  2  1  0
  2  3  1  0
  2  4  1  0
  4  5  1  6
  5  6  1  0
  6  7  1  0
  7  8  1  0
  4  9  1  0
  9 10  1  0
  9 11  2  0
M  ISO  4   1   1   3   3   8   4  10   2
M  END
>  <symbol>  (72) 
Hcy

>  <m_abbr>  (72) 
Hcy

>  <m_name>  (72) 
Homocysteine

>  <m_type>  (72) 
aa

>  <m_subtype>  (72) 
natural

>  <m_Rgroups>  (72) 
[H],[OH],[H],[H]

>  <m_chem_types>  (72) 
1:backbone_n,2:backbone_c,3:backbone_n_mod,4:thiol

>  <m_activation_policy>  (72) 
canonical-sites-v1

$$$$

     RDKit          2D

 11 10  0  0  0  0  0  0  0  0999 V2000
   -3.3018   -0.2248    0.0000 R   0  0  0  0  0  1  0  0  0  0  0  0
   -1.9832   -0.9398    0.0000 N   0  0  0  0  0  0  0  0  0  0  0  0
   -1.9430   -2.4392    0.0000 R   0  0  0  0  0  1  0  0  0  0  0  0
   -0.7047   -0.1553    0.0000 C   0  0  0  0  0  0  0  0  0  0  0  0
    0.6140   -0.8702    0.0000 C   0  0  0  0  0  0  0  0  0  0  0  0
    1.8925   -0.0858    0.0000 C   0  0  0  0  0  0  0  0  0  0  0  0
    3.2111   -0.8007    0.0000 O   0  0  0  0  0  0  0  0  0  0  0  0
    4.4896   -0.0162    0.0000 R   0  0  0  0  0  1  0  0  0  0  0  0
   -0.7448    1.3442    0.0000 C   0  0  0  0  0  0  0  0  0  0  0  0
    0.5337    2.1287    0.0000 R   0  0  0  0  0  1  0  0  0  0  0  0
   -2.0634    2.0592    0.0000 O   0  0  0  0  0  0  0  0  0  0  0  0
  1  2  1  0
  2  3  1  0
  2  4  1  0
  4  5  1  6
  5  6  1  0
  6  7  1  0
  7  8  1  0
  4  9  1  0
  9 10  1  0
  9 11  2  0
M  ISO  4   1   1   3   3   8   4  10   2
M  END
>  <symbol>  (73) 
Hse

>  <m_abbr>  (73) 
Hse

>  <m_name>  (73) 
Homoserine

>  <m_type>  (73) 
aa

>  <m_subtype>  (73) 
natural

>  <m_Rgroups>  (73) 
[H],[OH],[H],[H]

>  <m_chem_types>  (73) 
1:backbone_n,2:backbone_c,3:backbone_n_mod,4:hydroxyl

>  <m_activation_policy>  (73) 
canonical-sites-v1

$$$$

     RDKit          2D

 11 10  0  0  0  0  0  0  0  0999 V2000
   -3.3018   -0.2248    0.0000 R   0  0  0  0  0  1  0  0  0  0  0  0
   -1.9832   -0.9398    0.0000 N   0  0  0  0  0  0  0  0  0  0  0  0
   -1.9430   -2.4392    0.0000 R   0  0  0  0  0  1  0  0  0  0  0  0
   -0.7047   -0.1553    0.0000 C   0  0  0  0  0  0  0  0  0  0  0  0
    0.6140   -0.8702    0.0000 C   0  0  0  0  0  0  0  0  0  0  0  0
    1.8925   -0.0858    0.0000 C   0  0  0  0  0  0  0  0  0  0  0  0
    3.2111   -0.8007    0.0000 C   0  0  0  0  0  0  0  0  0  0  0  0
    4.4896   -0.0162    0.0000 C   0  0  0  0  0  0  0  0  0  0  0  0
   -0.7448    1.3442    0.0000 C   0  0  0  0  0  0  0  0  0  0  0  0
    0.5337    2.1287    0.0000 R   0  0  0  0  0  1  0  0  0  0  0  0
   -2.0634    2.0592    0.0000 O   0  0  0  0  0  0  0  0  0  0  0  0
  1  2  1  0
  2  3  1  0
  2  4  1  0
  4  5  1  1
  5  6  1  0
  6  7  1  0
  7  8  1  0
  4  9  1  0
  9 10  1  0
  9 11  2  0
M  ISO  3   1   1   3   3  10   2
M  END
>  <symbol>  (74) 
D_Nle

>  <m_abbr>  (74) 
D_Nle

>  <m_name>  (74) 
D-Norleucine

>  <m_type>  (74) 
aa

>  <m_subtype>  (74) 
natural

>  <m_Rgroups>  (74) 
[H],[OH],[H]

>  <m_chem_types>  (74) 
1:backbone_n,2:backbone_c,3:backbone_n_mod

>  <m_activation_policy>  (74) 
canonical-sites-v1

$$$$

     RDKit          2D

 15 15  0  0  0  0  0  0  0  0999 V2000
   -3.9151   -1.6710    0.0000 R   0  0  0  0  0  1  0  0  0  0  0  0
   -2.4580   -1.3145    0.0000 N   0  0  0  0  0  0  0  0  0  0  0  0
   -1.4208   -2.3982    0.0000 R   0  0  0  0  0  1  0  0  0  0  0  0
   -2.0382    0.1255    0.0000 C   0  0  0  0  0  0  0  0  0  0  0  0
   -0.5812    0.4819    0.0000 C   0  0  0  0  0  0  0  0  0  0  0  0
    0.4560   -0.6017    0.0000 C   0  0  0  0  0  0  0  0  0  0  0  0
    1.9131   -0.2453    0.0000 C   0  0  0  0  0  0  0  0  0  0  0  0
    2.3329    1.1948    0.0000 C   0  0  0  0  0  0  0  0  0  0  0  0
    3.7900    1.5512    0.0000 C   0  0  0  0  0  0  0  0  0  0  0  0
    4.8271    0.4676    0.0000 C   0  0  0  0  0  0  0  0  0  0  0  0
    4.4073   -0.9725    0.0000 C   0  0  0  0  0  0  0  0  0  0  0  0
    2.9503   -1.3289    0.0000 C   0  0  0  0  0  0  0  0  0  0  0  0
   -3.0754    1.2091    0.0000 C   0  0  0  0  0  0  0  0  0  0  0  0
   -4.5324    0.8527    0.0000 R   0  0  0  0  0  1  0  0  0  0  0  0
   -2.6556    2.6492    0.0000 O   0  0  0  0  0  0  0  0  0  0  0  0
  1  2  1  0
  2  3  1  0
  2  4  1  0
  4  5  1  1
  5  6  1  0
  6  7  1  0
  7  8  2  0
  8  9  1  0
  9 10  2  0
 10 11  1  0
 11 12  2  0
  4 13  1  0
 13 14  1  0
 13 15  2  0
 12  7  1  0
M  ISO  3   1   1   3   3  14   2
M  END
>  <symbol>  (75) 
D_hPhe

>  <m_abbr>  (75) 
D_hPhe

>  <m_name>  (75) 
D-Homophenylalanine

>  <m_type>  (75) 
aa

>  <m_subtype>  (75) 
natural

>  <m_Rgroups>  (75) 
[H],[OH],[H]

>  <m_chem_types>  (75) 
1:backbone_n,2:backbone_c,3:backbone_n_mod

>  <m_activation_policy>  (75) 
canonical-sites-v1

$$$$

     RDKit          2D

 11 11  0  0  0  0  0  0  0  0999 V2000
   -1.0596   -2.4555    0.0000 R   0  0  0  0  0  1  0  0  0  0  0  0
   -0.2576   -1.1879    0.0000 N   0  0  0  0  0  0  0  0  0  0  0  0
    1.2393   -1.0917    0.0000 C   0  0  0  0  0  0  0  0  0  0  0  0
    1.6103    0.3617    0.0000 C   0  0  0  0  0  0  0  0  0  0  0  0
    3.0042    0.9158    0.0000 O   0  0  0  0  0  0  0  0  0  0  0  0
    4.1811   -0.0143    0.0000 R   0  0  0  0  0  1  0  0  0  0  0  0
    0.3427    1.1637    0.0000 C   0  0  0  0  0  0  0  0  0  0  0  0
   -0.8117    0.2060    0.0000 C   0  0  0  0  0  0  0  0  0  0  0  0
   -2.2651    0.5770    0.0000 C   0  0  0  0  0  0  0  0  0  0  0  0
   -2.6705    2.0212    0.0000 R   0  0  0  0  0  1  0  0  0  0  0  0
   -3.3131   -0.4961    0.0000 O   0  0  0  0  0  0  0  0  0  0  0  0
  1  2  1  0
  2  3  1  0
  3  4  1  0
  4  5  1  6
  5  6  1  0
  4  7  1  0
  7  8  1  0
  8  9  1  1
  9 10  1  0
  9 11  2  0
  8  2  1  0
M  ISO  3   1   1   6   4  10   2
M  END
>  <symbol>  (76) 
D_Hyp

>  <m_abbr>  (76) 
D_Hyp

>  <m_name>  (76) 
D-4-Hydroxyproline

>  <m_type>  (76) 
aa

>  <m_subtype>  (76) 
natural

>  <m_Rgroups>  (76) 
[H],[OH],None,[H]

>  <m_chem_types>  (76) 
1:backbone_n,2:backbone_c,4:hydroxyl

>  <m_activation_policy>  (76) 
canonical-sites-v1

$$$$

     RDKit          2D

 10  9  0  0  0  0  0  0  0  0999 V2000
   -2.8539   -0.2134    0.0000 R   0  0  0  0  0  1  0  0  0  0  0  0
   -1.5385   -0.9344    0.0000 N   0  0  0  0  0  0  0  0  0  0  0  0
   -1.5052   -2.4340    0.0000 R   0  0  0  0  0  1  0  0  0  0  0  0
   -0.2564   -0.1557    0.0000 C   0  0  0  0  0  0  0  0  0  0  0  0
    1.0589   -0.8767    0.0000 C   0  0  0  0  0  0  0  0  0  0  0  0
    2.3410   -0.0981    0.0000 C   0  0  0  0  0  0  0  0  0  0  0  0
    3.6564   -0.8191    0.0000 C   0  0  0  0  0  0  0  0  0  0  0  0
   -0.2897    1.3439    0.0000 C   0  0  0  0  0  0  0  0  0  0  0  0
    0.9924    2.1225    0.0000 R   0  0  0  0  0  1  0  0  0  0  0  0
   -1.6051    2.0649    0.0000 O   0  0  0  0  0  0  0  0  0  0  0  0
  1  2  1  0
  2  3  1  0
  2  4  1  0
  4  5  1  1
  5  6  1  0
  6  7  1  0
  4  8  1  0
  8  9  1  0
  8 10  2  0
M  ISO  3   1   1   3   3   9   2
M  END
>  <symbol>  (77) 
D_Nva

>  <m_abbr>  (77) 
D_Nva

>  <m_name>  (77) 
D-Norvaline

>  <m_type>  (77) 
aa

>  <m_subtype>  (77) 
natural

>  <m_Rgroups>  (77) 
[H],[OH],[H]

>  <m_chem_types>  (77) 
1:backbone_n,2:backbone_c,3:backbone_n_mod

>  <m_activation_policy>  (77) 
canonical-sites-v1

$$$$

     RDKit          2D

 13 12  0  0  0  0  0  0  0  0999 V2000
   -4.0960   -0.1954    0.0000 R   0  0  0  0  0  1  0  0  0  0  0  0
   -2.7929   -0.9383    0.0000 N   0  0  0  0  0  0  0  0  0  0  0  0
   -2.7847   -2.4383    0.0000 R   0  0  0  0  0  1  0  0  0  0  0  0
   -1.4979   -0.1812    0.0000 C   0  0  0  0  0  0  0  0  0  0  0  0
   -0.1948   -0.9242    0.0000 C   0  0  0  0  0  0  0  0  0  0  0  0
    1.1001   -0.1671    0.0000 C   0  0  0  0  0  0  0  0  0  0  0  0
    2.4032   -0.9100    0.0000 C   0  0  0  0  0  0  0  0  0  0  0  0
    3.6982   -0.1529    0.0000 N   0  0  0  0  0  0  0  0  0  0  0  0
    5.0013   -0.8959    0.0000 R   0  0  0  0  0  1  0  0  0  0  0  0
    3.6900    1.3470    0.0000 R   0  0  0  0  0  1  0  0  0  0  0  0
   -1.5061    1.3187    0.0000 C   0  0  0  0  0  0  0  0  0  0  0  0
   -0.2112    2.0758    0.0000 R   0  0  0  0  0  1  0  0  0  0  0  0
   -2.8092    2.0617    0.0000 O   0  0  0  0  0  0  0  0  0  0  0  0
  1  2  1  0
  2  3  1  0
  2  4  1  0
  4  5  1  1
  5  6  1  0
  6  7  1  0
  7  8  1  0
  8  9  1  0
  8 10  1  0
  4 11  1  0
 11 12  1  0
 11 13  2  0
M  ISO  5   1   1   3   3   9   4  10   5  12   2
M  END
>  <symbol>  (78) 
D_Orn

>  <m_abbr>  (78) 
D_Orn

>  <m_name>  (78) 
D-Ornithine

>  <m_type>  (78) 
aa

>  <m_subtype>  (78) 
natural

>  <m_Rgroups>  (78) 
[H],[OH],[H],[H],[H]

>  <m_chem_types>  (78) 
1:backbone_n,2:backbone_c,3:backbone_n_mod,4:amine_primary,5:amine_primary

>  <m_activation_policy>  (78) 
canonical-sites-v1

$$$$

     RDKit          2D

 10 10  0  0  0  0  0  0  0  0999 V2000
    0.4944   -2.1570    0.0000 R   0  0  0  0  0  1  0  0  0  0  0  0
    0.6182   -0.6621    0.0000 N   0  0  0  0  0  0  0  0  0  0  0  0
    1.9003    0.1164    0.0000 C   0  0  0  0  0  0  0  0  0  0  0  0
    3.2838   -0.4632    0.0000 O   0  0  0  0  0  0  0  0  0  0  0  0
    1.5560    1.5764    0.0000 C   0  0  0  0  0  0  0  0  0  0  0  0
    0.0611    1.7001    0.0000 C   0  0  0  0  0  0  0  0  0  0  0  0
   -0.5185    0.3166    0.0000 C   0  0  0  0  0  0  0  0  0  0  0  0
   -1.9785   -0.0276    0.0000 C   0  0  0  0  0  0  0  0  0  0  0  0
   -3.0066    1.0646    0.0000 R   0  0  0  0  0  1  0  0  0  0  0  0
   -2.4103   -1.4641    0.0000 O   0  0  0  0  0  0  0  0  0  0  0  0
  1  2  1  0
  2  3  1  0
  3  4  2  0
  3  5  1  0
  5  6  1  0
  6  7  1  0
  7  8  1  6
  8  9  1  0
  8 10  2  0
  7  2  1  0
M  ISO  2   1   1   9   2
M  END
>  <symbol>  (79) 
Pyr

>  <m_abbr>  (79) 
Pyr

>  <m_name>  (79) 
Pyroglutamic acid

>  <m_type>  (79) 
aa

>  <m_subtype>  (79) 
natural

>  <m_Rgroups>  (79) 
[H],[OH]

>  <m_chem_types>  (79) 
1:amide_nh,2:backbone_c

>  <m_activation_policy>  (79) 
canonical-sites-v1

$$$$

     RDKit          2D

 10 10  0  0  0  0  0  0  0  0999 V2000
    0.4944   -2.1570    0.0000 R   0  0  0  0  0  1  0  0  0  0  0  0
    0.6182   -0.6621    0.0000 N   0  0  0  0  0  0  0  0  0  0  0  0
    1.9003    0.1164    0.0000 C   0  0  0  0  0  0  0  0  0  0  0  0
    3.2838   -0.4632    0.0000 O   0  0  0  0  0  0  0  0  0  0  0  0
    1.5560    1.5764    0.0000 C   0  0  0  0  0  0  0  0  0  0  0  0
    0.0611    1.7001    0.0000 C   0  0  0  0  0  0  0  0  0  0  0  0
   -0.5185    0.3166    0.0000 C   0  0  0  0  0  0  0  0  0  0  0  0
   -1.9785   -0.0276    0.0000 C   0  0  0  0  0  0  0  0  0  0  0  0
   -3.0066    1.0646    0.0000 R   0  0  0  0  0  1  0  0  0  0  0  0
   -2.4103   -1.4641    0.0000 O   0  0  0  0  0  0  0  0  0  0  0  0
  1  2  1  0
  2  3  1  0
  3  4  2  0
  3  5  1  0
  5  6  1  0
  6  7  1  0
  7  8  1  1
  8  9  1  0
  8 10  2  0
  7  2  1  0
M  ISO  2   1   1   9   2
M  END
>  <symbol>  (80) 
D_Pyr

>  <m_abbr>  (80) 
D_Pyr

>  <m_name>  (80) 
D-Pyroglutamic acid

>  <m_type>  (80) 
aa

>  <m_subtype>  (80) 
natural

>  <m_Rgroups>  (80) 
[H],[OH]

>  <m_chem_types>  (80) 
1:amide_nh,2:backbone_c

>  <m_activation_policy>  (80) 
canonical-sites-v1

$$$$

     RDKit          2D

 15 15  0  0  0  0  0  0  0  0999 V2000
   -2.9107    2.0342    0.0000 R   0  0  0  0  0  1  0  0  0  0  0  0
   -1.6606    1.2052    0.0000 N   0  0  0  0  0  0  0  0  0  0  0  0
   -0.3176    1.8733    0.0000 R   0  0  0  0  0  1  0  0  0  0  0  0
   -1.7535   -0.2919    0.0000 C   0  0  0  0  0  0  0  0  0  0  0  0
   -0.5034   -1.1210    0.0000 C   0  0  0  0  0  0  0  0  0  0  0  0
    0.8396   -0.4529    0.0000 C   0  0  0  0  0  0  0  0  0  0  0  0
    0.9325    1.0442    0.0000 C   0  0  0  0  0  0  0  0  0  0  0  0
    2.2755    1.7123    0.0000 C   0  0  0  0  0  0  0  0  0  0  0  0
    3.5256    0.8833    0.0000 C   0  0  0  0  0  0  0  0  0  0  0  0
    3.4327   -0.6138    0.0000 C   0  0  0  0  0  0  0  0  0  0  0  0
    4.6828   -1.4428    0.0000 Cl  0  0  0  0  0  0  0  0  0  0  0  0
    2.0897   -1.2819    0.0000 C   0  0  0  0  0  0  0  0  0  0  0  0
   -3.0965   -0.9600    0.0000 C   0  0  0  0  0  0  0  0  0  0  0  0
   -4.3466   -0.1310    0.0000 R   0  0  0  0  0  1  0  0  0  0  0  0
   -3.1894   -2.4572    0.0000 O   0  0  0  0  0  0  0  0  0  0  0  0
  1  2  1  0
  2  3  1  0
  2  4  1  0
  4  5  1  1
  5  6  1  0
  6  7  2  0
  7  8  1  0
  8  9  2  0
  9 10  1  0
 10 11  1  0
 10 12  2  0
  4 13  1  0
 13 14  1  0
 13 15  2  0
 12  6  1  0
M  ISO  3   1   1   3   3  14   2
M  END
>  <symbol>  (81) 
Phe_3Cl

>  <m_abbr>  (81) 
Phe_3Cl

>  <m_name>  (81) 
3-Chloro-L-phenylalanine

>  <m_type>  (81) 
aa

>  <m_subtype>  (81) 
natural

>  <m_Rgroups>  (81) 
[H],[OH],[H]

>  <m_chem_types>  (81) 
1:backbone_n,2:backbone_c,3:backbone_n_mod

>  <m_activation_policy>  (81) 
canonical-sites-v1

$$$$

     RDKit          2D

 15 15  0  0  0  0  0  0  0  0999 V2000
   -2.5933    2.2771    0.0000 R   0  0  0  0  0  1  0  0  0  0  0  0
   -1.4913    1.2594    0.0000 N   0  0  0  0  0  0  0  0  0  0  0  0
   -0.0590    1.7049    0.0000 R   0  0  0  0  0  1  0  0  0  0  0  0
   -1.8217   -0.2038    0.0000 C   0  0  0  0  0  0  0  0  0  0  0  0
   -0.7197   -1.2215    0.0000 C   0  0  0  0  0  0  0  0  0  0  0  0
    0.7126   -0.7760    0.0000 C   0  0  0  0  0  0  0  0  0  0  0  0
    1.0430    0.6872    0.0000 C   0  0  0  0  0  0  0  0  0  0  0  0
    2.4753    1.1326    0.0000 C   0  0  0  0  0  0  0  0  0  0  0  0
    3.5773    0.1149    0.0000 C   0  0  0  0  0  0  0  0  0  0  0  0
    5.0096    0.5604    0.0000 Cl  0  0  0  0  0  0  0  0  0  0  0  0
    3.2469   -1.3482    0.0000 C   0  0  0  0  0  0  0  0  0  0  0  0
    1.8146   -1.7937    0.0000 C   0  0  0  0  0  0  0  0  0  0  0  0
   -3.2540   -0.6493    0.0000 C   0  0  0  0  0  0  0  0  0  0  0  0
   -4.3559    0.3684    0.0000 R   0  0  0  0  0  1  0  0  0  0  0  0
   -3.5844   -2.1124    0.0000 O   0  0  0  0  0  0  0  0  0  0  0  0
  1  2  1  0
  2  3  1  0
  2  4  1  0
  4  5  1  1
  5  6  1  0
  6  7  1  0
  7  8  2  0
  8  9  1  0
  9 10  1  0
  9 11  2  0
 11 12  1  0
  4 13  1  0
 13 14  1  0
 13 15  2  0
 12  6  2  0
M  ISO  3   1   1   3   3  14   2
M  END
>  <symbol>  (82) 
Phe_4Cl

>  <m_abbr>  (82) 
Phe_4Cl

>  <m_name>  (82) 
4-Chloro-L-phenylalanine

>  <m_type>  (82) 
aa

>  <m_subtype>  (82) 
natural

>  <m_Rgroups>  (82) 
[H],[OH],[H]

>  <m_chem_types>  (82) 
1:backbone_n,2:backbone_c,3:backbone_n_mod

>  <m_activation_policy>  (82) 
canonical-sites-v1

$$$$

     RDKit          2D

 17 17  0  0  0  0  0  0  0  0999 V2000
   -3.1584    2.3389    0.0000 R   0  0  0  0  0  1  0  0  0  0  0  0
   -2.1065    1.2696    0.0000 N   0  0  0  0  0  0  0  0  0  0  0  0
   -0.6545    1.6460    0.0000 R   0  0  0  0  0  1  0  0  0  0  0  0
   -2.5066   -0.1760    0.0000 C   0  0  0  0  0  0  0  0  0  0  0  0
   -1.4547   -1.2454    0.0000 C   0  0  0  0  0  0  0  0  0  0  0  0
   -0.0026   -0.8690    0.0000 C   0  0  0  0  0  0  0  0  0  0  0  0
    0.3974    0.5766    0.0000 C   0  0  0  0  0  0  0  0  0  0  0  0
    1.8495    0.9530    0.0000 C   0  0  0  0  0  0  0  0  0  0  0  0
    2.9014   -0.1163    0.0000 C   0  0  0  0  0  0  0  0  0  0  0  0
    4.3534    0.2600    0.0000 N   0  0  0  0  0  0  0  0  0  0  0  0
    5.4054   -0.8093    0.0000 R   0  0  0  0  0  1  0  0  0  0  0  0
    4.7535    1.7057    0.0000 R   0  0  0  0  0  1  0  0  0  0  0  0
    2.5013   -1.5620    0.0000 C   0  0  0  0  0  0  0  0  0  0  0  0
    1.0493   -1.9383    0.0000 C   0  0  0  0  0  0  0  0  0  0  0  0
   -3.9586   -0.5524    0.0000 C   0  0  0  0  0  0  0  0  0  0  0  0
   -5.0106    0.5169    0.0000 R   0  0  0  0  0  1  0  0  0  0  0  0
   -4.3587   -1.9980    0.0000 O   0  0  0  0  0  0  0  0  0  0  0  0
  1  2  1  0
  2  3  1  0
  2  4  1  0
  4  5  1  1
  5  6  1  0
  6  7  1  0
  7  8  2  0
  8  9  1  0
  9 10  1  0
 10 11  1  0
 10 12  1  0
  9 13  2  0
 13 14  1  0
  4 15  1  0
 15 16  1  0
 15 17  2  0
 14  6  2  0
M  ISO  5   1   1   3   3  11   4  12   5  16   2
M  END
>  <symbol>  (83) 
Phe_4NH2

>  <m_abbr>  (83) 
Phe_4NH2

>  <m_name>  (83) 
p-Aminophenylalanine

>  <m_type>  (83) 
aa

>  <m_subtype>  (83) 
natural

>  <m_Rgroups>  (83) 
[H],[OH],[H],[H],[H]

>  <m_chem_types>  (83) 
1:backbone_n,2:backbone_c,3:backbone_n_mod,4:amine_primary,5:amine_primary

>  <m_activation_policy>  (83) 
canonical-sites-v1

$$$$

     RDKit          2D

 13 13  0  0  0  0  0  0  0  0999 V2000
    3.1731    1.2990    0.0000 R   0  0  0  0  0  1  0  0  0  0  0  0
    1.6731    1.2990    0.0000 N   0  0  0  0  0  0  0  0  0  0  0  0
    0.9231    2.5981    0.0000 R   0  0  0  0  0  1  0  0  0  0  0  0
    0.9231    0.0000    0.0000 C   0  0  0  0  0  0  0  0  0  0  0  0
    1.6731   -1.2990    0.0000 C   0  0  0  0  0  0  0  0  0  0  0  0
    3.1731   -1.2990    0.0000 R   0  0  0  0  0  1  0  0  0  0  0  0
    0.9231   -2.5981    0.0000 O   0  0  0  0  0  0  0  0  0  0  0  0
   -0.5769   -0.0000    0.0000 C   0  0  0  0  0  0  0  0  0  0  0  0
   -1.3269   -1.2990    0.0000 C   0  0  0  0  0  0  0  0  0  0  0  0
   -2.8269   -1.2990    0.0000 C   0  0  0  0  0  0  0  0  0  0  0  0
   -3.5769    0.0000    0.0000 C   0  0  0  0  0  0  0  0  0  0  0  0
   -2.8269    1.2990    0.0000 C   0  0  0  0  0  0  0  0  0  0  0  0
   -1.3269    1.2990    0.0000 C   0  0  0  0  0  0  0  0  0  0  0  0
  1  2  1  0
  2  3  1  0
  4  2  1  6
  4  5  1  0
  5  6  1  0
  5  7  2  0
  4  8  1  0
  8  9  2  0
  9 10  1  0
 10 11  2  0
 11 12  1  0
 12 13  2  0
 13  8  1  0
M  ISO  3   1   1   3   3   6   2
M  END
>  <symbol>  (84) 
Phg

>  <m_abbr>  (84) 
Phg

>  <m_name>  (84) 
2-Phenylglycine

>  <m_type>  (84) 
aa

>  <m_subtype>  (84) 
natural

>  <m_Rgroups>  (84) 
[H],[OH],[H]

>  <m_chem_types>  (84) 
1:backbone_n,2:backbone_c,3:backbone_n_mod

>  <m_activation_policy>  (84) 
canonical-sites-v1

$$$$

     RDKit          2D

 13 12  0  0  0  0  0  0  0  0999 V2000
   -3.7540   -0.5823    0.0000 R   0  0  0  0  0  1  0  0  0  0  0  0
   -2.3396   -1.0816    0.0000 N   0  0  0  0  0  0  0  0  0  0  0  0
   -2.0647   -2.5562    0.0000 R   0  0  0  0  0  1  0  0  0  0  0  0
   -1.2000   -0.1063    0.0000 C   0  0  0  0  0  0  0  0  0  0  0  0
    0.2145   -0.6056    0.0000 C   0  0  0  0  0  0  0  0  0  0  0  0
    1.3541    0.3698    0.0000 O   0  0  0  0  0  0  0  0  0  0  0  0
    2.7686   -0.1295    0.0000 C   0  0  0  0  0  0  0  0  0  0  0  0
    3.2679    1.2850    0.0000 C   0  0  0  0  0  0  0  0  0  0  0  0
    2.2693   -1.5440    0.0000 C   0  0  0  0  0  0  0  0  0  0  0  0
    4.1831   -0.6288    0.0000 C   0  0  0  0  0  0  0  0  0  0  0  0
   -1.4748    1.3683    0.0000 C   0  0  0  0  0  0  0  0  0  0  0  0
   -0.3352    2.3436    0.0000 R   0  0  0  0  0  1  0  0  0  0  0  0
   -2.8893    1.8676    0.0000 O   0  0  0  0  0  0  0  0  0  0  0  0
  1  2  1  0
  2  3  1  0
  2  4  1  0
  4  5  1  6
  5  6  1  0
  6  7  1  0
  7  8  1  0
  7  9  1  0
  7 10  1  0
  4 11  1  0
 11 12  1  0
 11 13  2  0
M  ISO  3   1   1   3   3  12   2
M  END
>  <symbol>  (85) 
Ser_tBu

>  <m_abbr>  (85) 
Ser_tBu

>  <m_name>  (85) 
O-tert-Butyl-L-serine

>  <m_type>  (85) 
aa

>  <m_subtype>  (85) 
natural

>  <m_Rgroups>  (85) 
[H],[OH],[H]

>  <m_chem_types>  (85) 
1:backbone_n,2:backbone_c,3:backbone_n_mod

>  <m_activation_policy>  (85) 
canonical-sites-v1

$$$$

     RDKit          2D

 22 23  0  0  0  0  0  0  0  0999 V2000
   -5.2446    2.3533    0.0000 R   0  0  0  0  0  1  0  0  0  0  0  0
   -4.1767    1.2999    0.0000 N   0  0  0  0  0  0  0  0  0  0  0  0
   -2.7305    1.6980    0.0000 R   0  0  0  0  0  1  0  0  0  0  0  0
   -4.5550   -0.1516    0.0000 C   0  0  0  0  0  0  0  0  0  0  0  0
   -3.4871   -1.2050    0.0000 C   0  0  0  0  0  0  0  0  0  0  0  0
   -2.0409   -0.8068    0.0000 C   0  0  0  0  0  0  0  0  0  0  0  0
   -1.6626    0.6447    0.0000 C   0  0  0  0  0  0  0  0  0  0  0  0
   -0.2164    1.0428    0.0000 C   0  0  0  0  0  0  0  0  0  0  0  0
    0.8515   -0.0105    0.0000 C   0  0  0  0  0  0  0  0  0  0  0  0
    2.2977    0.3876    0.0000 O   0  0  0  0  0  0  0  0  0  0  0  0
    3.3656   -0.6658    0.0000 C   0  0  0  0  0  0  0  0  0  0  0  0
    4.8118   -0.2676    0.0000 C   0  0  0  0  0  0  0  0  0  0  0  0
    5.8797   -1.3210    0.0000 C   0  0  0  0  0  0  0  0  0  0  0  0
    7.3259   -0.9228    0.0000 C   0  0  0  0  0  0  0  0  0  0  0  0
    7.7042    0.5287    0.0000 C   0  0  0  0  0  0  0  0  0  0  0  0
    6.6363    1.5820    0.0000 C   0  0  0  0  0  0  0  0  0  0  0  0
    5.1901    1.1839    0.0000 C   0  0  0  0  0  0  0  0  0  0  0  0
    0.4732   -1.4621    0.0000 C   0  0  0  0  0  0  0  0  0  0  0  0
   -0.9730   -1.8602    0.0000 C   0  0  0  0  0  0  0  0  0  0  0  0
   -6.0012   -0.5498    0.0000 C   0  0  0  0  0  0  0  0  0  0  0  0
   -7.0691    0.5036    0.0000 R   0  0  0  0  0  1  0  0  0  0  0  0
   -6.3794   -2.0013    0.0000 O   0  0  0  0  0  0  0  0  0  0  0  0
  1  2  1  0
  2  3  1  0
  2  4  1  0
  4  5  1  1
  5  6  1  0
  6  7  1  0
  7  8  2  0
  8  9  1  0
  9 10  1  0
 10 11  1  0
 11 12  1  0
 12 13  2  0
 13 14  1  0
 14 15  2  0
 15 16  1  0
 16 17  2  0
  9 18  2  0
 18 19  1  0
  4 20  1  0
 20 21  1  0
 20 22  2  0
 19  6  2  0
 17 12  1  0
M  ISO  3   1   1   3   3  21   2
M  END
>  <symbol>  (86) 
Tyr_Bn

>  <m_abbr>  (86) 
Tyr_Bn

>  <m_name>  (86) 
O-Benzyl-L-tyrosine

>  <m_type>  (86) 
aa

>  <m_subtype>  (86) 
natural

>  <m_Rgroups>  (86) 
[H],[OH],[H]

>  <m_chem_types>  (86) 
1:backbone_n,2:backbone_c,3:backbone_n_mod

>  <m_activation_policy>  (86) 
canonical-sites-v1

$$$$

     RDKit          2D

 13 13  0  0  0  0  0  0  0  0999 V2000
   -2.0806    2.2134    0.0000 R   0  0  0  0  0  1  0  0  0  0  0  0
   -0.9264    1.2554    0.0000 N   0  0  0  0  0  0  0  0  0  0  0  0
    0.4804    1.7760    0.0000 R   0  0  0  0  0  1  0  0  0  0  0  0
   -1.1789   -0.2232    0.0000 C   0  0  0  0  0  0  0  0  0  0  0  0
   -0.0246   -1.1812    0.0000 C   0  0  0  0  0  0  0  0  0  0  0  0
    1.3821   -0.6606    0.0000 C   0  0  0  0  0  0  0  0  0  0  0  0
    2.6302   -1.4926    0.0000 C   0  0  0  0  0  0  0  0  0  0  0  0
    3.8072   -0.5628    0.0000 S   0  0  0  0  0  0  0  0  0  0  0  0
    3.2866    0.8440    0.0000 C   0  0  0  0  0  0  0  0  0  0  0  0
    1.7878    0.7835    0.0000 N   0  0  0  0  0  0  0  0  0  0  0  0
   -2.5856   -0.7438    0.0000 C   0  0  0  0  0  0  0  0  0  0  0  0
   -3.7399    0.2142    0.0000 R   0  0  0  0  0  1  0  0  0  0  0  0
   -2.8382   -2.2224    0.0000 O   0  0  0  0  0  0  0  0  0  0  0  0
  1  2  1  0
  2  3  1  0
  2  4  1  0
  4  5  1  1
  5  6  1  0
  6  7  2  0
  7  8  1  0
  8  9  1  0
  9 10  2  0
  4 11  1  0
 11 12  1  0
 11 13  2  0
 10  6  1  0
M  ISO  3   1   1   3   3  12   2
M  END
>  <symbol>  (87) 
Tza

>  <m_abbr>  (87) 
Tza

>  <m_name>  (87) 
3-Thiazolylalanine

>  <m_type>  (87) 
aa

>  <m_subtype>  (87) 
natural

>  <m_Rgroups>  (87) 
[H],[OH],[H]

>  <m_chem_types>  (87) 
1:backbone_n,2:backbone_c,3:backbone_n_mod

>  <m_activation_policy>  (87) 
canonical-sites-v1

$$$$

     RDKit          2D

 18 19  0  0  0  0  0  0  0  0999 V2000
   -3.9967   -1.5786    0.0000 R   0  0  0  0  0  1  0  0  0  0  0  0
   -2.5756   -1.0986    0.0000 N   0  0  0  0  0  0  0  0  0  0  0  0
   -1.4493   -2.0892    0.0000 R   0  0  0  0  0  1  0  0  0  0  0  0
   -2.2807    0.3722    0.0000 C   0  0  0  0  0  0  0  0  0  0  0  0
   -0.8596    0.8522    0.0000 C   0  0  0  0  0  0  0  0  0  0  0  0
    0.2667   -0.1384    0.0000 C   0  0  0  0  0  0  0  0  0  0  0  0
   -0.0281   -1.6092    0.0000 C   0  0  0  0  0  0  0  0  0  0  0  0
    1.0981   -2.5999    0.0000 C   0  0  0  0  0  0  0  0  0  0  0  0
    2.5193   -2.1198    0.0000 C   0  0  0  0  0  0  0  0  0  0  0  0
    2.8141   -0.6491    0.0000 C   0  0  0  0  0  0  0  0  0  0  0  0
    4.2352   -0.1690    0.0000 C   0  0  0  0  0  0  0  0  0  0  0  0
    4.5300    1.3017    0.0000 C   0  0  0  0  0  0  0  0  0  0  0  0
    3.4037    2.2924    0.0000 C   0  0  0  0  0  0  0  0  0  0  0  0
    1.9826    1.8124    0.0000 C   0  0  0  0  0  0  0  0  0  0  0  0
    1.6878    0.3416    0.0000 C   0  0  0  0  0  0  0  0  0  0  0  0
   -3.4070    1.3629    0.0000 C   0  0  0  0  0  0  0  0  0  0  0  0
   -4.8281    0.8828    0.0000 R   0  0  0  0  0  1  0  0  0  0  0  0
   -3.1122    2.8336    0.0000 O   0  0  0  0  0  0  0  0  0  0  0  0
  1  2  1  0
  2  3  1  0
  2  4  1  0
  4  5  1  6
  5  6  1  0
  6  7  2  0
  7  8  1  0
  8  9  2  0
  9 10  1  0
 10 11  2  0
 11 12  1  0
 12 13  2  0
 13 14  1  0
 14 15  2  0
  4 16  1  0
 16 17  1  0
 16 18  2  0
 15  6  1  0
 15 10  1  0
M  ISO  3   1   1   3   3  17   2
M  END
>  <symbol>  (88) 
1Nal

>  <m_abbr>  (88) 
1Nal

>  <m_name>  (88) 
3-(1-naphthyl)-alanine

>  <m_type>  (88) 
aa

>  <m_subtype>  (88) 
natural

>  <m_Rgroups>  (88) 
[H],[OH],[H]

>  <m_chem_types>  (88) 
1:backbone_n,2:backbone_c,3:backbone_n_mod

>  <m_activation_policy>  (88) 
canonical-sites-v1

$$$$

     RDKit          2D

 14 14  0  0  0  0  0  0  0  0999 V2000
   -2.3413    2.2101    0.0000 R   0  0  0  0  0  1  0  0  0  0  0  0
   -1.1930    1.2450    0.0000 N   0  0  0  0  0  0  0  0  0  0  0  0
    0.2170    1.7569    0.0000 R   0  0  0  0  0  1  0  0  0  0  0  0
   -1.4546   -0.2320    0.0000 C   0  0  0  0  0  0  0  0  0  0  0  0
   -0.3063   -1.1971    0.0000 C   0  0  0  0  0  0  0  0  0  0  0  0
    1.1037   -0.6851    0.0000 C   0  0  0  0  0  0  0  0  0  0  0  0
    1.3653    0.7919    0.0000 C   0  0  0  0  0  0  0  0  0  0  0  0
    2.7752    1.3038    0.0000 C   0  0  0  0  0  0  0  0  0  0  0  0
    3.9235    0.3387    0.0000 C   0  0  0  0  0  0  0  0  0  0  0  0
    3.6619   -1.1383    0.0000 C   0  0  0  0  0  0  0  0  0  0  0  0
    2.2520   -1.6502    0.0000 C   0  0  0  0  0  0  0  0  0  0  0  0
   -2.8645   -0.7439    0.0000 C   0  0  0  0  0  0  0  0  0  0  0  0
   -4.0128    0.2211    0.0000 R   0  0  0  0  0  1  0  0  0  0  0  0
   -3.1261   -2.2209    0.0000 O   0  0  0  0  0  0  0  0  0  0  0  0
  1  2  1  0
  2  3  1  0
  2  4  1  0
  4  5  1  1
  5  6  1  0
  6  7  1  0
  7  8  1  0
  8  9  1  0
  9 10  1  0
 10 11  1  0
  4 12  1  0
 12 13  1  0
 12 14  2  0
 11  6  1  0
M  ISO  3   1   1   3   3  13   2
M  END
>  <symbol>  (89) 
Cha

>  <m_abbr>  (89) 
Cha

>  <m_name>  (89) 
3-Cyclohexylalanine

>  <m_type>  (89) 
aa

>  <m_subtype>  (89) 
natural

>  <m_Rgroups>  (89) 
[H],[OH],[H]

>  <m_chem_types>  (89) 
1:backbone_n,2:backbone_c,3:backbone_n_mod

>  <m_activation_policy>  (89) 
canonical-sites-v1

$$$$

     RDKit          2D

 20 19  0  0  0  0  0  0  0  0999 V2000
   -6.1992   -1.5075    0.0000 R   0  0  0  0  0  1  0  0  0  0  0  0
   -4.7031   -1.6151    0.0000 N   0  0  0  0  0  0  0  0  0  0  0  0
   -4.0482   -2.9647    0.0000 R   0  0  0  0  0  1  0  0  0  0  0  0
   -3.8618   -0.3733    0.0000 C   0  0  0  0  0  0  0  0  0  0  0  0
   -2.3656   -0.4810    0.0000 C   0  0  0  0  0  0  0  0  0  0  0  0
   -1.5243    0.7609    0.0000 C   0  0  0  0  0  0  0  0  0  0  0  0
   -0.0282    0.6532    0.0000 C   0  0  0  0  0  0  0  0  0  0  0  0
    0.8131    1.8951    0.0000 C   0  0  0  0  0  0  0  0  0  0  0  0
    2.3093    1.7874    0.0000 N   0  0  0  0  0  0  0  0  0  0  0  0
    3.1506    3.0293    0.0000 R   0  0  0  0  0  1  0  0  0  0  0  0
    2.9641    0.4379    0.0000 C   0  0  0  0  0  0  0  0  0  0  0  0
    2.1228   -0.8040    0.0000 O   0  0  0  0  0  0  0  0  0  0  0  0
    4.4602    0.3302    0.0000 O   0  0  0  0  0  0  0  0  0  0  0  0
    5.1150   -1.0193    0.0000 C   0  0  0  0  0  0  0  0  0  0  0  0
    6.4646   -0.3645    0.0000 C   0  0  0  0  0  0  0  0  0  0  0  0
    3.7655   -1.6741    0.0000 C   0  0  0  0  0  0  0  0  0  0  0  0
    5.7698   -2.3688    0.0000 C   0  0  0  0  0  0  0  0  0  0  0  0
   -4.5166    0.9762    0.0000 C   0  0  0  0  0  0  0  0  0  0  0  0
   -3.6753    2.2181    0.0000 R   0  0  0  0  0  1  0  0  0  0  0  0
   -6.0127    1.0839    0.0000 O   0  0  0  0  0  0  0  0  0  0  0  0
  1  2  1  0
  2  3  1  0
  2  4  1  0
  4  5  1  6
  5  6  1  0
  6  7  1  0
  7  8  1  0
  8  9  1  0
  9 10  1  0
  9 11  1  0
 11 12  2  0
 11 13  1  0
 13 14  1  0
 14 15  1  0
 14 16  1  0
 14 17  1  0
  4 18  1  0
 18 19  1  0
 18 20  2  0
M  ISO  4   1   1   3   3  10   4  19   2
M  END
>  <symbol>  (90) 
Lys_Boc

>  <m_abbr>  (90) 
Lys_Boc

>  <m_name>  (90) 
N-epsilon-tert-Boc-L-lysine

>  <m_type>  (90) 
aa

>  <m_subtype>  (90) 
natural

>  <m_Rgroups>  (90) 
[H],[OH],[H],[H]

>  <m_chem_types>  (90) 
1:backbone_n,2:backbone_c,3:backbone_n_mod,4:carbamate_nh

>  <m_activation_policy>  (90) 
canonical-sites-v1

$$$$

     RDKit          2D

 11 10  0  0  0  0  0  0  0  0999 V2000
   -2.0616   -1.9640    0.0000 R   0  0  0  0  0  1  0  0  0  0  0  0
   -0.6443   -1.4730    0.0000 N   0  0  0  0  0  0  0  0  0  0  0  0
    0.4896   -2.4550    0.0000 R   0  0  0  0  0  1  0  0  0  0  0  0
   -0.3608    0.0000    0.0000 C   0  0  0  0  0  0  0  0  0  0  0  0
   -1.4947    0.9820    0.0000 C   0  0  0  0  0  0  0  0  0  0  0  0
   -1.2112    2.4550    0.0000 R   0  0  0  0  0  1  0  0  0  0  0  0
   -2.9120    0.4910    0.0000 O   0  0  0  0  0  0  0  0  0  0  0  0
    1.0566    0.4910    0.0000 C   0  0  0  0  0  0  0  0  0  0  0  0
    1.3401    1.9640    0.0000 C   0  0  0  0  0  0  0  0  0  0  0  0
    2.1905   -0.4910    0.0000 O   0  0  0  0  0  0  0  0  0  0  0  0
    3.6078   -0.0000    0.0000 R   0  0  0  0  0  1  0  0  0  0  0  0
  1  2  1  0
  2  3  1  0
  4  2  1  6
  4  5  1  0
  5  6  1  0
  5  7  2  0
  4  8  1  0
  8  9  1  6
  8 10  1  0
 10 11  1  0
M  ISO  4   1   1   3   3   6   2  11   4
M  END
>  <symbol>  (91) 
aThr

>  <m_abbr>  (91) 
aThr

>  <m_name>  (91) 
L-allo-Threonine

>  <m_type>  (91) 
aa

>  <m_subtype>  (91) 
natural

>  <m_Rgroups>  (91) 
[H],[OH],[H],[H]

>  <m_chem_types>  (91) 
1:backbone_n,2:backbone_c,3:backbone_n_mod,4:hydroxyl

>  <m_activation_policy>  (91) 
canonical-sites-v1

$$$$

     RDKit          2D

 18 19  0  0  0  0  0  0  0  0999 V2000
   -2.8410    2.4745    0.0000 R   0  0  0  0  0  1  0  0  0  0  0  0
   -1.9666    1.2557    0.0000 N   0  0  0  0  0  0  0  0  0  0  0  0
   -0.4739    1.4035    0.0000 R   0  0  0  0  0  1  0  0  0  0  0  0
   -2.5850   -0.1109    0.0000 C   0  0  0  0  0  0  0  0  0  0  0  0
   -1.7106   -1.3297    0.0000 C   0  0  0  0  0  0  0  0  0  0  0  0
   -0.2179   -1.1819    0.0000 C   0  0  0  0  0  0  0  0  0  0  0  0
    0.6564   -2.4007    0.0000 C   0  0  0  0  0  0  0  0  0  0  0  0
    2.1491   -2.2530    0.0000 C   0  0  0  0  0  0  0  0  0  0  0  0
    2.7675   -0.8863    0.0000 C   0  0  0  0  0  0  0  0  0  0  0  0
    4.2602   -0.7385    0.0000 C   0  0  0  0  0  0  0  0  0  0  0  0
    4.8785    0.6281    0.0000 C   0  0  0  0  0  0  0  0  0  0  0  0
    4.0042    1.8469    0.0000 C   0  0  0  0  0  0  0  0  0  0  0  0
    2.5115    1.6991    0.0000 C   0  0  0  0  0  0  0  0  0  0  0  0
    1.8931    0.3325    0.0000 C   0  0  0  0  0  0  0  0  0  0  0  0
    0.4004    0.1847    0.0000 C   0  0  0  0  0  0  0  0  0  0  0  0
   -4.0777   -0.2587    0.0000 C   0  0  0  0  0  0  0  0  0  0  0  0
   -4.9520    0.9601    0.0000 R   0  0  0  0  0  1  0  0  0  0  0  0
   -4.6960   -1.6253    0.0000 O   0  0  0  0  0  0  0  0  0  0  0  0
  1  2  1  0
  2  3  1  0
  2  4  1  0
  4  5  1  6
  5  6  1  0
  6  7  1  0
  7  8  2  0
  8  9  1  0
  9 10  2  0
 10 11  1  0
 11 12  2  0
 12 13  1  0
 13 14  2  0
 14 15  1  0
  4 16  1  0
 16 17  1  0
 16 18  2  0
 15  6  2  0
 14  9  1  0
M  ISO  3   1   1   3   3  17   2
M  END
>  <symbol>  (92) 
D_2Nal

>  <m_abbr>  (92) 
D_2Nal

>  <m_name>  (92) 
D-3-naphthylalanine

>  <m_type>  (92) 
aa

>  <m_subtype>  (92) 
natural

>  <m_Rgroups>  (92) 
[H],[OH],[H]

>  <m_chem_types>  (92) 
1:backbone_n,2:backbone_c,3:backbone_n_mod

>  <m_activation_policy>  (92) 
canonical-sites-v1

$$$$

     RDKit          2D

 13 13  0  0  0  0  0  0  0  0999 V2000
   -2.0806    2.2134    0.0000 R   0  0  0  0  0  1  0  0  0  0  0  0
   -0.9264    1.2554    0.0000 N   0  0  0  0  0  0  0  0  0  0  0  0
    0.4804    1.7760    0.0000 R   0  0  0  0  0  1  0  0  0  0  0  0
   -1.1789   -0.2232    0.0000 C   0  0  0  0  0  0  0  0  0  0  0  0
   -0.0246   -1.1812    0.0000 C   0  0  0  0  0  0  0  0  0  0  0  0
    1.3821   -0.6606    0.0000 C   0  0  0  0  0  0  0  0  0  0  0  0
    2.6302   -1.4926    0.0000 C   0  0  0  0  0  0  0  0  0  0  0  0
    3.8072   -0.5628    0.0000 C   0  0  0  0  0  0  0  0  0  0  0  0
    3.2866    0.8440    0.0000 C   0  0  0  0  0  0  0  0  0  0  0  0
    1.7878    0.7835    0.0000 S   0  0  0  0  0  0  0  0  0  0  0  0
   -2.5856   -0.7438    0.0000 C   0  0  0  0  0  0  0  0  0  0  0  0
   -3.7399    0.2142    0.0000 R   0  0  0  0  0  1  0  0  0  0  0  0
   -2.8382   -2.2224    0.0000 O   0  0  0  0  0  0  0  0  0  0  0  0
  1  2  1  0
  2  3  1  0
  2  4  1  0
  4  5  1  6
  5  6  1  0
  6  7  2  0
  7  8  1  0
  8  9  2  0
  9 10  1  0
  4 11  1  0
 11 12  1  0
 11 13  2  0
 10  6  1  0
M  ISO  3   1   1   3   3  12   2
M  END
>  <symbol>  (93) 
D_2Thi

>  <m_abbr>  (93) 
D_2Thi

>  <m_name>  (93) 
D-3-thienylalanine

>  <m_type>  (93) 
aa

>  <m_subtype>  (93) 
natural

>  <m_Rgroups>  (93) 
[H],[OH],[H]

>  <m_chem_types>  (93) 
1:backbone_n,2:backbone_c,3:backbone_n_mod

>  <m_activation_policy>  (93) 
canonical-sites-v1

$$$$

     RDKit          2D

 11 11  0  0  0  0  0  0  0  0999 V2000
   -1.0596   -2.4555    0.0000 R   0  0  0  0  0  1  0  0  0  0  0  0
   -0.2576   -1.1879    0.0000 N   0  0  0  0  0  0  0  0  0  0  0  0
    1.2393   -1.0917    0.0000 C   0  0  0  0  0  0  0  0  0  0  0  0
    1.6103    0.3617    0.0000 C   0  0  0  0  0  0  0  0  0  0  0  0
    3.0042    0.9158    0.0000 O   0  0  0  0  0  0  0  0  0  0  0  0
    4.1811   -0.0143    0.0000 R   0  0  0  0  0  1  0  0  0  0  0  0
    0.3427    1.1637    0.0000 C   0  0  0  0  0  0  0  0  0  0  0  0
   -0.8117    0.2060    0.0000 C   0  0  0  0  0  0  0  0  0  0  0  0
   -2.2651    0.5770    0.0000 C   0  0  0  0  0  0  0  0  0  0  0  0
   -2.6705    2.0212    0.0000 R   0  0  0  0  0  1  0  0  0  0  0  0
   -3.3131   -0.4961    0.0000 O   0  0  0  0  0  0  0  0  0  0  0  0
  1  2  1  0
  2  3  1  0
  3  4  1  0
  4  5  1  1
  5  6  1  0
  4  7  1  0
  7  8  1  0
  8  9  1  1
  9 10  1  0
  9 11  2  0
  8  2  1  0
M  ISO  3   1   1   6   4  10   2
M  END
>  <symbol>  (94) 
D_aHyp

>  <m_abbr>  (94) 
D_aHyp

>  <m_name>  (94) 
D-allo-4-hydroxyproline

>  <m_type>  (94) 
aa

>  <m_subtype>  (94) 
natural

>  <m_Rgroups>  (94) 
[H],[OH],None,[H]

>  <m_chem_types>  (94) 
1:backbone_n,2:backbone_c,4:hydroxyl

>  <m_activation_policy>  (94) 
canonical-sites-v1

$$$$

     RDKit          2D

 11 10  0  0  0  0  0  0  0  0999 V2000
   -2.0616   -1.9640    0.0000 R   0  0  0  0  0  1  0  0  0  0  0  0
   -0.6443   -1.4730    0.0000 N   0  0  0  0  0  0  0  0  0  0  0  0
    0.4896   -2.4550    0.0000 R   0  0  0  0  0  1  0  0  0  0  0  0
   -0.3608    0.0000    0.0000 C   0  0  0  0  0  0  0  0  0  0  0  0
   -1.4947    0.9820    0.0000 C   0  0  0  0  0  0  0  0  0  0  0  0
   -1.2112    2.4550    0.0000 R   0  0  0  0  0  1  0  0  0  0  0  0
   -2.9120    0.4910    0.0000 O   0  0  0  0  0  0  0  0  0  0  0  0
    1.0566    0.4910    0.0000 C   0  0  0  0  0  0  0  0  0  0  0  0
    1.3401    1.9640    0.0000 C   0  0  0  0  0  0  0  0  0  0  0  0
    2.1905   -0.4910    0.0000 C   0  0  0  0  0  0  0  0  0  0  0  0
    3.6078   -0.0000    0.0000 C   0  0  0  0  0  0  0  0  0  0  0  0
  1  2  1  0
  2  3  1  0
  4  2  1  1
  4  5  1  0
  5  6  1  0
  5  7  2  0
  4  8  1  0
  8  9  1  1
  8 10  1  0
 10 11  1  0
M  ISO  3   1   1   3   3   6   2
M  END
>  <symbol>  (95) 
D_aIle

>  <m_abbr>  (95) 
D_aIle

>  <m_name>  (95) 
D-allo-Isoleucine

>  <m_type>  (95) 
aa

>  <m_subtype>  (95) 
natural

>  <m_Rgroups>  (95) 
[H],[OH],[H]

>  <m_chem_types>  (95) 
1:backbone_n,2:backbone_c,3:backbone_n_mod

>  <m_activation_policy>  (95) 
canonical-sites-v1

$$$$

     RDKit          2D

 13 13  0  0  0  0  0  0  0  0999 V2000
    3.1731    1.2990    0.0000 R   0  0  0  0  0  1  0  0  0  0  0  0
    1.6731    1.2990    0.0000 N   0  0  0  0  0  0  0  0  0  0  0  0
    0.9231    2.5981    0.0000 R   0  0  0  0  0  1  0  0  0  0  0  0
    0.9231    0.0000    0.0000 C   0  0  0  0  0  0  0  0  0  0  0  0
    1.6731   -1.2990    0.0000 C   0  0  0  0  0  0  0  0  0  0  0  0
    3.1731   -1.2990    0.0000 R   0  0  0  0  0  1  0  0  0  0  0  0
    0.9231   -2.5981    0.0000 O   0  0  0  0  0  0  0  0  0  0  0  0
   -0.5769   -0.0000    0.0000 C   0  0  0  0  0  0  0  0  0  0  0  0
   -1.3269   -1.2990    0.0000 C   0  0  0  0  0  0  0  0  0  0  0  0
   -2.8269   -1.2990    0.0000 C   0  0  0  0  0  0  0  0  0  0  0  0
   -3.5769    0.0000    0.0000 C   0  0  0  0  0  0  0  0  0  0  0  0
   -2.8269    1.2990    0.0000 C   0  0  0  0  0  0  0  0  0  0  0  0
   -1.3269    1.2990    0.0000 C   0  0  0  0  0  0  0  0  0  0  0  0
  1  2  1  0
  2  3  1  0
  4  2  1  1
  4  5  1  0
  5  6  1  0
  5  7  2  0
  4  8  1  0
  8  9  2  0
  9 10  1  0
 10 11  2  0
 11 12  1  0
 12 13  2  0
 13  8  1  0
M  ISO  3   1   1   3   3   6   2
M  END
>  <symbol>  (96) 
D_Phg

>  <m_abbr>  (96) 
D_Phg

>  <m_name>  (96) 
D-2-phenylglycine

>  <m_type>  (96) 
aa

>  <m_subtype>  (96) 
natural

>  <m_Rgroups>  (96) 
[H],[OH],[H]

>  <m_chem_types>  (96) 
1:backbone_n,2:backbone_c,3:backbone_n_mod

>  <m_activation_policy>  (96) 
canonical-sites-v1

$$$$

     RDKit          2D

 13 12  0  0  0  0  0  0  0  0999 V2000
   -3.7540   -0.5823    0.0000 R   0  0  0  0  0  1  0  0  0  0  0  0
   -2.3396   -1.0816    0.0000 N   0  0  0  0  0  0  0  0  0  0  0  0
   -2.0647   -2.5562    0.0000 R   0  0  0  0  0  1  0  0  0  0  0  0
   -1.2000   -0.1063    0.0000 C   0  0  0  0  0  0  0  0  0  0  0  0
    0.2145   -0.6056    0.0000 C   0  0  0  0  0  0  0  0  0  0  0  0
    1.3541    0.3698    0.0000 O   0  0  0  0  0  0  0  0  0  0  0  0
    2.7686   -0.1295    0.0000 C   0  0  0  0  0  0  0  0  0  0  0  0
    3.2679    1.2850    0.0000 C   0  0  0  0  0  0  0  0  0  0  0  0
    2.2693   -1.5440    0.0000 C   0  0  0  0  0  0  0  0  0  0  0  0
    4.1831   -0.6288    0.0000 C   0  0  0  0  0  0  0  0  0  0  0  0
   -1.4748    1.3683    0.0000 C   0  0  0  0  0  0  0  0  0  0  0  0
   -0.3352    2.3436    0.0000 R   0  0  0  0  0  1  0  0  0  0  0  0
   -2.8893    1.8676    0.0000 O   0  0  0  0  0  0  0  0  0  0  0  0
  1  2  1  0
  2  3  1  0
  2  4  1  0
  4  5  1  1
  5  6  1  0
  6  7  1  0
  7  8  1  0
  7  9  1  0
  7 10  1  0
  4 11  1  0
 11 12  1  0
 11 13  2  0
M  ISO  3   1   1   3   3  12   2
M  END
>  <symbol>  (97) 
D_Ser_tBu

>  <m_abbr>  (97) 
D_Ser_tBu

>  <m_name>  (97) 
O-tert-Butyl-D-serine

>  <m_type>  (97) 
aa

>  <m_subtype>  (97) 
natural

>  <m_Rgroups>  (97) 
[H],[OH],[H]

>  <m_chem_types>  (97) 
1:backbone_n,2:backbone_c,3:backbone_n_mod

>  <m_activation_policy>  (97) 
canonical-sites-v1

$$$$

     RDKit          2D

 12 11  0  0  0  0  0  0  0  0999 V2000
   -2.1363    2.3416    0.0000 R   0  0  0  0  0  1  0  0  0  0  0  0
   -2.0201    0.8461    0.0000 N   0  0  0  0  0  0  0  0  0  0  0  0
   -3.2572   -0.0022    0.0000 R   0  0  0  0  0  1  0  0  0  0  0  0
   -0.6669    0.1990    0.0000 C   0  0  0  0  0  0  0  0  0  0  0  0
    0.5701    1.0473    0.0000 C   0  0  0  0  0  0  0  0  0  0  0  0
    1.9233    0.4001    0.0000 S   0  0  0  0  0  0  0  0  0  0  0  0
    2.5705    1.7533    0.0000 O   0  0  0  0  0  0  0  0  0  0  0  0
    1.2762   -0.9531    0.0000 O   0  0  0  0  0  0  0  0  0  0  0  0
    3.2766   -0.2470    0.0000 O   0  0  0  0  0  0  0  0  0  0  0  0
   -0.5508   -1.2965    0.0000 C   0  0  0  0  0  0  0  0  0  0  0  0
    0.8024   -1.9437    0.0000 R   0  0  0  0  0  1  0  0  0  0  0  0
   -1.7878   -2.1449    0.0000 O   0  0  0  0  0  0  0  0  0  0  0  0
  1  2  1  0
  2  3  1  0
  2  4  1  0
  4  5  1  1
  5  6  1  0
  6  7  2  0
  6  8  2  0
  6  9  1  0
  4 10  1  0
 10 11  1  0
 10 12  2  0
M  ISO  3   1   1   3   3  11   2
M  END
>  <symbol>  (98) 
Cya

>  <m_abbr>  (98) 
Cya

>  <m_name>  (98) 
3-Sulfoalanine

>  <m_type>  (98) 
aa

>  <m_subtype>  (98) 
natural

>  <m_Rgroups>  (98) 
[H],[OH],[H]

>  <m_chem_types>  (98) 
1:backbone_n,2:backbone_c,3:backbone_n_mod

>  <m_activation_policy>  (98) 
canonical-sites-v1

$$$$

     RDKit          2D

 15 14  0  0  0  0  0  0  0  0999 V2000
   -4.9145   -0.4874    0.0000 R   0  0  0  0  0  1  0  0  0  0  0  0
   -3.5296   -1.0638    0.0000 N   0  0  0  0  0  0  0  0  0  0  0  0
   -3.3363   -2.5513    0.0000 R   0  0  0  0  0  1  0  0  0  0  0  0
   -2.3381   -0.1526    0.0000 C   0  0  0  0  0  0  0  0  0  0  0  0
   -0.9532   -0.7289    0.0000 C   0  0  0  0  0  0  0  0  0  0  0  0
    0.2383    0.1822    0.0000 C   0  0  0  0  0  0  0  0  0  0  0  0
    1.6232   -0.3941    0.0000 C   0  0  0  0  0  0  0  0  0  0  0  0
    2.8147    0.5171    0.0000 C   0  0  0  0  0  0  0  0  0  0  0  0
    4.1996   -0.0593    0.0000 N   0  0  0  0  0  0  0  0  0  0  0  0
    4.7759    1.3256    0.0000 C   0  0  0  0  0  0  0  0  0  0  0  0
    3.6233   -1.4441    0.0000 C   0  0  0  0  0  0  0  0  0  0  0  0
    5.5844   -0.6356    0.0000 C   0  0  0  0  0  0  0  0  0  0  0  0
   -2.5314    1.3349    0.0000 C   0  0  0  0  0  0  0  0  0  0  0  0
   -1.3399    2.2460    0.0000 R   0  0  0  0  0  1  0  0  0  0  0  0
   -3.9163    1.9112    0.0000 O   0  0  0  0  0  0  0  0  0  0  0  0
  1  2  1  0
  2  3  1  0
  2  4  1  0
  4  5  1  6
  5  6  1  0
  6  7  1  0
  7  8  1  0
  8  9  1  0
  9 10  1  0
  9 11  1  0
  9 12  1  0
  4 13  1  0
 13 14  1  0
 13 15  2  0
M  CHG  1   9   1
M  ISO  3   1   1   3   3  14   2
M  END
>  <symbol>  (99) 
Lys_Me3

>  <m_abbr>  (99) 
Lys_Me3

>  <m_name>  (99) 
Epsilon-N-trimethyllysine

>  <m_type>  (99) 
aa

>  <m_subtype>  (99) 
natural

>  <m_Rgroups>  (99) 
[H],[OH],[H]

>  <m_chem_types>  (99) 
1:backbone_n,2:backbone_c,3:backbone_n_mod

>  <m_activation_policy>  (99) 
canonical-sites-v1

$$$$

     RDKit          2D

 12 11  0  0  0  0  0  0  0  0999 V2000
    0.3230    2.5072    0.0000 R   0  0  0  0  0  1  0  0  0  0  0  0
   -0.7795    1.4901    0.0000 N   0  0  0  0  0  0  0  0  0  0  0  0
   -2.2116    1.9364    0.0000 R   0  0  0  0  0  1  0  0  0  0  0  0
   -0.4499    0.0268    0.0000 C   0  0  0  0  0  0  0  0  0  0  0  0
   -1.5524   -0.9903    0.0000 C   0  0  0  0  0  0  0  0  0  0  0  0
   -1.2228   -2.4536    0.0000 R   0  0  0  0  0  1  0  0  0  0  0  0
   -2.9845   -0.5441    0.0000 O   0  0  0  0  0  0  0  0  0  0  0  0
    0.9822   -0.4194    0.0000 C   0  0  0  0  0  0  0  0  0  0  0  0
    1.4284    1.0126    0.0000 C   0  0  0  0  0  0  0  0  0  0  0  0
    0.5360   -1.8515    0.0000 C   0  0  0  0  0  0  0  0  0  0  0  0
    2.4143   -0.8657    0.0000 S   0  0  0  0  0  0  0  0  0  0  0  0
    3.5168    0.1514    0.0000 R   0  0  0  0  0  1  0  0  0  0  0  0
  1  2  1  0
  2  3  1  0
  4  2  1  1
  4  5  1  0
  5  6  1  0
  5  7  2  0
  4  8  1  0
  8  9  1  0
  8 10  1  0
  8 11  1  0
 11 12  1  0
M  ISO  4   1   1   3   3   6   2  12   4
M  END
>  <symbol>  (100) 
Pen

>  <m_abbr>  (100) 
Pen

>  <m_name>  (100) 
Penicillamine (3-mercaptovaline)

>  <m_type>  (100) 
aa

>  <m_subtype>  (100) 
natural

>  <m_Rgroups>  (100) 
[H],[OH],[H],[H]

>  <m_chem_types>  (100) 
1:backbone_n,2:backbone_c,3:backbone_n_mod,4:thiol

>  <m_activation_policy>  (100) 
canonical-sites-v1

$$$$

     RDKit          2D

 15 15  0  0  0  0  0  0  0  0999 V2000
   -2.5933    2.2771    0.0000 R   0  0  0  0  0  1  0  0  0  0  0  0
   -1.4913    1.2594    0.0000 N   0  0  0  0  0  0  0  0  0  0  0  0
   -0.0590    1.7049    0.0000 R   0  0  0  0  0  1  0  0  0  0  0  0
   -1.8217   -0.2038    0.0000 C   0  0  0  0  0  0  0  0  0  0  0  0
   -0.7197   -1.2215    0.0000 C   0  0  0  0  0  0  0  0  0  0  0  0
    0.7126   -0.7760    0.0000 C   0  0  0  0  0  0  0  0  0  0  0  0
    1.0430    0.6872    0.0000 C   0  0  0  0  0  0  0  0  0  0  0  0
    2.4753    1.1326    0.0000 C   0  0  0  0  0  0  0  0  0  0  0  0
    3.5773    0.1149    0.0000 C   0  0  0  0  0  0  0  0  0  0  0  0
    5.0096    0.5604    0.0000 C   0  0  0  0  0  0  0  0  0  0  0  0
    3.2469   -1.3482    0.0000 C   0  0  0  0  0  0  0  0  0  0  0  0
    1.8146   -1.7937    0.0000 C   0  0  0  0  0  0  0  0  0  0  0  0
   -3.2540   -0.6493    0.0000 C   0  0  0  0  0  0  0  0  0  0  0  0
   -4.3559    0.3684    0.0000 R   0  0  0  0  0  1  0  0  0  0  0  0
   -3.5844   -2.1124    0.0000 O   0  0  0  0  0  0  0  0  0  0  0  0
  1  2  1  0
  2  3  1  0
  2  4  1  0
  4  5  1  1
  5  6  1  0
  6  7  1  0
  7  8  2  0
  8  9  1  0
  9 10  1  0
  9 11  2  0
 11 12  1  0
  4 13  1  0
 13 14  1  0
 13 15  2  0
 12  6  2  0
M  ISO  3   1   1   3   3  14   2
M  END
>  <symbol>  (101) 
Phe_4Me

>  <m_abbr>  (101) 
Phe_4Me

>  <m_name>  (101) 
p-Methylphenylalanine

>  <m_type>  (101) 
aa

>  <m_subtype>  (101) 
natural

>  <m_Rgroups>  (101) 
[H],[OH],[H]

>  <m_chem_types>  (101) 
1:backbone_n,2:backbone_c,3:backbone_n_mod

>  <m_activation_policy>  (101) 
canonical-sites-v1

$$$$

     RDKit          2D

 16 16  0  0  0  0  0  0  0  0999 V2000
   -3.7273    2.1932    0.0000 R   0  0  0  0  0  1  0  0  0  0  0  0
   -2.4953    1.3376    0.0000 N   0  0  0  0  0  0  0  0  0  0  0  0
   -1.1383    1.9767    0.0000 R   0  0  0  0  0  1  0  0  0  0  0  0
   -2.6203   -0.1572    0.0000 C   0  0  0  0  0  0  0  0  0  0  0  0
   -1.3883   -1.0129    0.0000 C   0  0  0  0  0  0  0  0  0  0  0  0
   -0.0312   -0.3737    0.0000 O   0  0  0  0  0  0  0  0  0  0  0  0
    1.2008   -1.2293    0.0000 C   0  0  0  0  0  0  0  0  0  0  0  0
    2.5578   -0.5902    0.0000 C   0  0  0  0  0  0  0  0  0  0  0  0
    2.6828    0.9046    0.0000 C   0  0  0  0  0  0  0  0  0  0  0  0
    4.0398    1.5438    0.0000 C   0  0  0  0  0  0  0  0  0  0  0  0
    5.2718    0.6882    0.0000 C   0  0  0  0  0  0  0  0  0  0  0  0
    5.1468   -0.8066    0.0000 C   0  0  0  0  0  0  0  0  0  0  0  0
    3.7898   -1.4458    0.0000 C   0  0  0  0  0  0  0  0  0  0  0  0
   -3.9773   -0.7964    0.0000 C   0  0  0  0  0  0  0  0  0  0  0  0
   -5.2093    0.0592    0.0000 R   0  0  0  0  0  1  0  0  0  0  0  0
   -4.1023   -2.2912    0.0000 O   0  0  0  0  0  0  0  0  0  0  0  0
  1  2  1  0
  2  3  1  0
  2  4  1  0
  4  5  1  1
  5  6  1  0
  6  7  1  0
  7  8  1  0
  8  9  2  0
  9 10  1  0
 10 11  2  0
 11 12  1  0
 12 13  2  0
  4 14  1  0
 14 15  1  0
 14 16  2  0
 13  8  1  0
M  ISO  3   1   1   3   3  15   2
M  END
>  <symbol>  (102) 
Ser_Bn

>  <m_abbr>  (102) 
Ser_Bn

>  <m_name>  (102) 
O-Benzyl-L-serine

>  <m_type>  (102) 
aa

>  <m_subtype>  (102) 
natural

>  <m_Rgroups>  (102) 
[H],[OH],[H]

>  <m_chem_types>  (102) 
1:backbone_n,2:backbone_c,3:backbone_n_mod

>  <m_activation_policy>  (102) 
canonical-sites-v1

$$$$

     RDKit          2D

 19 19  0  0  0  0  0  0  0  0999 V2000
   -4.0746    2.1896    0.0000 R   0  0  0  0  0  1  0  0  0  0  0  0
   -2.9144    1.2389    0.0000 N   0  0  0  0  0  0  0  0  0  0  0  0
   -1.5109    1.7684    0.0000 R   0  0  0  0  0  1  0  0  0  0  0  0
   -3.1576   -0.2413    0.0000 C   0  0  0  0  0  0  0  0  0  0  0  0
   -1.9973   -1.1920    0.0000 C   0  0  0  0  0  0  0  0  0  0  0  0
   -0.5939   -0.6625    0.0000 C   0  0  0  0  0  0  0  0  0  0  0  0
   -0.3507    0.8177    0.0000 C   0  0  0  0  0  0  0  0  0  0  0  0
    1.0528    1.3471    0.0000 C   0  0  0  0  0  0  0  0  0  0  0  0
    2.2130    0.3964    0.0000 C   0  0  0  0  0  0  0  0  0  0  0  0
    3.6165    0.9259    0.0000 O   0  0  0  0  0  0  0  0  0  0  0  0
    4.7767   -0.0248    0.0000 C   0  0  0  0  0  0  0  0  0  0  0  0
    5.7274    1.1355    0.0000 C   0  0  0  0  0  0  0  0  0  0  0  0
    3.8261   -1.1850    0.0000 C   0  0  0  0  0  0  0  0  0  0  0  0
    5.9370   -0.9755    0.0000 C   0  0  0  0  0  0  0  0  0  0  0  0
    1.9698   -1.0837    0.0000 C   0  0  0  0  0  0  0  0  0  0  0  0
    0.5664   -1.6132    0.0000 C   0  0  0  0  0  0  0  0  0  0  0  0
   -4.5610   -0.7707    0.0000 C   0  0  0  0  0  0  0  0  0  0  0  0
   -5.7213    0.1800    0.0000 R   0  0  0  0  0  1  0  0  0  0  0  0
   -4.8042   -2.2509    0.0000 O   0  0  0  0  0  0  0  0  0  0  0  0
  1  2  1  0
  2  3  1  0
  2  4  1  0
  4  5  1  1
  5  6  1  0
  6  7  1  0
  7  8  2  0
  8  9  1  0
  9 10  1  0
 10 11  1  0
 11 12  1  0
 11 13  1  0
 11 14  1  0
  9 15  2  0
 15 16  1  0
  4 17  1  0
 17 18  1  0
 17 19  2  0
 16  6  2  0
M  ISO  3   1   1   3   3  18   2
M  END
>  <symbol>  (103) 
Tyr_tBu

>  <m_abbr>  (103) 
Tyr_tBu

>  <m_name>  (103) 
O-tert-Butyl-L-tyrosine

>  <m_type>  (103) 
aa

>  <m_subtype>  (103) 
natural

>  <m_Rgroups>  (103) 
[H],[OH],[H]

>  <m_chem_types>  (103) 
1:backbone_n,2:backbone_c,3:backbone_n_mod

>  <m_activation_policy>  (103) 
canonical-sites-v1

$$$$

     RDKit          2D

 18 19  0  0  0  0  0  0  0  0999 V2000
   -2.8410    2.4745    0.0000 R   0  0  0  0  0  1  0  0  0  0  0  0
   -1.9666    1.2557    0.0000 N   0  0  0  0  0  0  0  0  0  0  0  0
   -0.4739    1.4035    0.0000 R   0  0  0  0  0  1  0  0  0  0  0  0
   -2.5850   -0.1109    0.0000 C   0  0  0  0  0  0  0  0  0  0  0  0
   -1.7106   -1.3297    0.0000 C   0  0  0  0  0  0  0  0  0  0  0  0
   -0.2179   -1.1819    0.0000 C   0  0  0  0  0  0  0  0  0  0  0  0
    0.6564   -2.4007    0.0000 C   0  0  0  0  0  0  0  0  0  0  0  0
    2.1491   -2.2530    0.0000 C   0  0  0  0  0  0  0  0  0  0  0  0
    2.7675   -0.8863    0.0000 C   0  0  0  0  0  0  0  0  0  0  0  0
    4.2602   -0.7385    0.0000 C   0  0  0  0  0  0  0  0  0  0  0  0
    4.8785    0.6281    0.0000 C   0  0  0  0  0  0  0  0  0  0  0  0
    4.0042    1.8469    0.0000 C   0  0  0  0  0  0  0  0  0  0  0  0
    2.5115    1.6991    0.0000 C   0  0  0  0  0  0  0  0  0  0  0  0
    1.8931    0.3325    0.0000 C   0  0  0  0  0  0  0  0  0  0  0  0
    0.4004    0.1847    0.0000 C   0  0  0  0  0  0  0  0  0  0  0  0
   -4.0777   -0.2587    0.0000 C   0  0  0  0  0  0  0  0  0  0  0  0
   -4.9520    0.9601    0.0000 R   0  0  0  0  0  1  0  0  0  0  0  0
   -4.6960   -1.6253    0.0000 O   0  0  0  0  0  0  0  0  0  0  0  0
  1  2  1  0
  2  3  1  0
  2  4  1  0
  4  5  1  1
  5  6  1  0
  6  7  1  0
  7  8  2  0
  8  9  1  0
  9 10  2  0
 10 11  1  0
 11 12  2  0
 12 13  1  0
 13 14  2  0
 14 15  1  0
  4 16  1  0
 16 17  1  0
 16 18  2  0
 15  6  2  0
 14  9  1  0
M  ISO  3   1   1   3   3  17   2
M  END
>  <symbol>  (104) 
2Nal

>  <m_abbr>  (104) 
2Nal

>  <m_name>  (104) 
3-Naphthylalanine

>  <m_type>  (104) 
aa

>  <m_subtype>  (104) 
natural

>  <m_Rgroups>  (104) 
[H],[OH],[H]

>  <m_chem_types>  (104) 
1:backbone_n,2:backbone_c,3:backbone_n_mod

>  <m_activation_policy>  (104) 
canonical-sites-v1

$$$$

     RDKit          2D

 13 13  0  0  0  0  0  0  0  0999 V2000
   -2.0806    2.2134    0.0000 R   0  0  0  0  0  1  0  0  0  0  0  0
   -0.9264    1.2554    0.0000 N   0  0  0  0  0  0  0  0  0  0  0  0
    0.4804    1.7760    0.0000 R   0  0  0  0  0  1  0  0  0  0  0  0
   -1.1789   -0.2232    0.0000 C   0  0  0  0  0  0  0  0  0  0  0  0
   -0.0246   -1.1812    0.0000 C   0  0  0  0  0  0  0  0  0  0  0  0
    1.3821   -0.6606    0.0000 C   0  0  0  0  0  0  0  0  0  0  0  0
    2.6302   -1.4926    0.0000 C   0  0  0  0  0  0  0  0  0  0  0  0
    3.8072   -0.5628    0.0000 C   0  0  0  0  0  0  0  0  0  0  0  0
    3.2866    0.8440    0.0000 C   0  0  0  0  0  0  0  0  0  0  0  0
    1.7878    0.7835    0.0000 S   0  0  0  0  0  0  0  0  0  0  0  0
   -2.5856   -0.7438    0.0000 C   0  0  0  0  0  0  0  0  0  0  0  0
   -3.7399    0.2142    0.0000 R   0  0  0  0  0  1  0  0  0  0  0  0
   -2.8382   -2.2224    0.0000 O   0  0  0  0  0  0  0  0  0  0  0  0
  1  2  1  0
  2  3  1  0
  2  4  1  0
  4  5  1  1
  5  6  1  0
  6  7  2  0
  7  8  1  0
  8  9  2  0
  9 10  1  0
  4 11  1  0
 11 12  1  0
 11 13  2  0
 10  6  1  0
M  ISO  3   1   1   3   3  12   2
M  END
>  <symbol>  (105) 
Thi

>  <m_abbr>  (105) 
Thi

>  <m_name>  (105) 
3-thienylalanine

>  <m_type>  (105) 
aa

>  <m_subtype>  (105) 
natural

>  <m_Rgroups>  (105) 
[H],[OH],[H]

>  <m_chem_types>  (105) 
1:backbone_n,2:backbone_c,3:backbone_n_mod

>  <m_activation_policy>  (105) 
canonical-sites-v1

$$$$

     RDKit          2D

 11 11  0  0  0  0  0  0  0  0999 V2000
   -1.0596   -2.4555    0.0000 R   0  0  0  0  0  1  0  0  0  0  0  0
   -0.2576   -1.1879    0.0000 N   0  0  0  0  0  0  0  0  0  0  0  0
    1.2393   -1.0917    0.0000 C   0  0  0  0  0  0  0  0  0  0  0  0
    1.6103    0.3617    0.0000 C   0  0  0  0  0  0  0  0  0  0  0  0
    3.0042    0.9158    0.0000 O   0  0  0  0  0  0  0  0  0  0  0  0
    4.1811   -0.0143    0.0000 R   0  0  0  0  0  1  0  0  0  0  0  0
    0.3427    1.1637    0.0000 C   0  0  0  0  0  0  0  0  0  0  0  0
   -0.8117    0.2060    0.0000 C   0  0  0  0  0  0  0  0  0  0  0  0
   -2.2651    0.5770    0.0000 C   0  0  0  0  0  0  0  0  0  0  0  0
   -2.6705    2.0212    0.0000 R   0  0  0  0  0  1  0  0  0  0  0  0
   -3.3131   -0.4961    0.0000 O   0  0  0  0  0  0  0  0  0  0  0  0
  1  2  1  0
  2  3  1  0
  3  4  1  0
  4  5  1  6
  5  6  1  0
  4  7  1  0
  7  8  1  0
  8  9  1  6
  9 10  1  0
  9 11  2  0
  8  2  1  0
M  ISO  3   1   1   6   4  10   2
M  END
>  <symbol>  (106) 
aHyp

>  <m_abbr>  (106) 
aHyp

>  <m_name>  (106) 
L-allo-4-hydroxyproline

>  <m_type>  (106) 
aa

>  <m_subtype>  (106) 
natural

>  <m_Rgroups>  (106) 
[H],[OH],None,[H]

>  <m_chem_types>  (106) 
1:backbone_n,2:backbone_c,4:hydroxyl

>  <m_activation_policy>  (106) 
canonical-sites-v1

$$$$

     RDKit          2D

 11 10  0  0  0  0  0  0  0  0999 V2000
   -2.3864   -1.2990    0.0000 R   0  0  0  0  0  1  0  0  0  0  0  0
   -0.8864   -1.2990    0.0000 N   0  0  0  0  0  0  0  0  0  0  0  0
   -0.1364   -2.5981    0.0000 R   0  0  0  0  0  1  0  0  0  0  0  0
   -0.1364    0.0000    0.0000 C   0  0  0  0  0  0  0  0  0  0  0  0
   -0.8864    1.2990    0.0000 C   0  0  0  0  0  0  0  0  0  0  0  0
   -0.1364    2.5981    0.0000 R   0  0  0  0  0  1  0  0  0  0  0  0
   -2.3864    1.2990    0.0000 O   0  0  0  0  0  0  0  0  0  0  0  0
    1.3636    0.0000    0.0000 C   0  0  0  0  0  0  0  0  0  0  0  0
    1.3636    1.5000    0.0000 C   0  0  0  0  0  0  0  0  0  0  0  0
    1.3636   -1.5000    0.0000 C   0  0  0  0  0  0  0  0  0  0  0  0
    2.8636    0.0000    0.0000 C   0  0  0  0  0  0  0  0  0  0  0  0
  1  2  1  0
  2  3  1  0
  4  2  1  6
  4  5  1  0
  5  6  1  0
  5  7  2  0
  4  8  1  0
  8  9  1  0
  8 10  1  0
  8 11  1  0
M  ISO  3   1   1   3   3   6   2
M  END
>  <symbol>  (107) 
Ala_tBu

>  <m_abbr>  (107) 
Ala_tBu

>  <m_name>  (107) 
3-Methylvaline

>  <m_type>  (107) 
aa

>  <m_subtype>  (107) 
natural

>  <m_Rgroups>  (107) 
[H],[OH],[H]

>  <m_chem_types>  (107) 
1:backbone_n,2:backbone_c,3:backbone_n_mod

>  <m_activation_policy>  (107) 
canonical-sites-v1

$$$$

     RDKit          2D

 15 15  0  0  0  0  0  0  0  0999 V2000
   -3.9151   -1.6710    0.0000 R   0  0  0  0  0  1  0  0  0  0  0  0
   -2.4580   -1.3145    0.0000 N   0  0  0  0  0  0  0  0  0  0  0  0
   -1.4208   -2.3982    0.0000 R   0  0  0  0  0  1  0  0  0  0  0  0
   -2.0382    0.1255    0.0000 C   0  0  0  0  0  0  0  0  0  0  0  0
   -0.5812    0.4819    0.0000 C   0  0  0  0  0  0  0  0  0  0  0  0
    0.4560   -0.6017    0.0000 C   0  0  0  0  0  0  0  0  0  0  0  0
    1.9131   -0.2453    0.0000 C   0  0  0  0  0  0  0  0  0  0  0  0
    2.3329    1.1948    0.0000 C   0  0  0  0  0  0  0  0  0  0  0  0
    3.7900    1.5512    0.0000 C   0  0  0  0  0  0  0  0  0  0  0  0
    4.8271    0.4676    0.0000 C   0  0  0  0  0  0  0  0  0  0  0  0
    4.4073   -0.9725    0.0000 C   0  0  0  0  0  0  0  0  0  0  0  0
    2.9503   -1.3289    0.0000 C   0  0  0  0  0  0  0  0  0  0  0  0
   -3.0754    1.2091    0.0000 C   0  0  0  0  0  0  0  0  0  0  0  0
   -4.5324    0.8527    0.0000 R   0  0  0  0  0  1  0  0  0  0  0  0
   -2.6556    2.6492    0.0000 O   0  0  0  0  0  0  0  0  0  0  0  0
  1  2  1  0
  2  3  1  0
  2  4  1  0
  4  5  1  6
  5  6  1  0
  6  7  1  0
  7  8  2  0
  8  9  1  0
  9 10  2  0
 10 11  1  0
 11 12  2  0
  4 13  1  0
 13 14  1  0
 13 15  2  0
 12  7  1  0
M  ISO  3   1   1   3   3  14   2
M  END
>  <symbol>  (108) 
hPhe

>  <m_abbr>  (108) 
hPhe

>  <m_name>  (108) 
Homophenylalanine

>  <m_type>  (108) 
aa

>  <m_subtype>  (108) 
natural

>  <m_Rgroups>  (108) 
[H],[OH],[H]

>  <m_chem_types>  (108) 
1:backbone_n,2:backbone_c,3:backbone_n_mod

>  <m_activation_policy>  (108) 
canonical-sites-v1

$$$$

     RDKit          2D

 18 19  0  0  0  0  0  0  0  0999 V2000
   -3.9967   -1.5786    0.0000 R   0  0  0  0  0  1  0  0  0  0  0  0
   -2.5756   -1.0986    0.0000 N   0  0  0  0  0  0  0  0  0  0  0  0
   -1.4493   -2.0892    0.0000 R   0  0  0  0  0  1  0  0  0  0  0  0
   -2.2807    0.3722    0.0000 C   0  0  0  0  0  0  0  0  0  0  0  0
   -0.8596    0.8522    0.0000 C   0  0  0  0  0  0  0  0  0  0  0  0
    0.2667   -0.1384    0.0000 C   0  0  0  0  0  0  0  0  0  0  0  0
   -0.0281   -1.6092    0.0000 C   0  0  0  0  0  0  0  0  0  0  0  0
    1.0981   -2.5999    0.0000 C   0  0  0  0  0  0  0  0  0  0  0  0
    2.5193   -2.1198    0.0000 C   0  0  0  0  0  0  0  0  0  0  0  0
    2.8141   -0.6491    0.0000 C   0  0  0  0  0  0  0  0  0  0  0  0
    4.2352   -0.1690    0.0000 C   0  0  0  0  0  0  0  0  0  0  0  0
    4.5300    1.3017    0.0000 C   0  0  0  0  0  0  0  0  0  0  0  0
    3.4037    2.2924    0.0000 C   0  0  0  0  0  0  0  0  0  0  0  0
    1.9826    1.8124    0.0000 C   0  0  0  0  0  0  0  0  0  0  0  0
    1.6878    0.3416    0.0000 C   0  0  0  0  0  0  0  0  0  0  0  0
   -3.4070    1.3629    0.0000 C   0  0  0  0  0  0  0  0  0  0  0  0
   -4.8281    0.8828    0.0000 R   0  0  0  0  0  1  0  0  0  0  0  0
   -3.1122    2.8336    0.0000 O   0  0  0  0  0  0  0  0  0  0  0  0
  1  2  1  0
  2  3  1  0
  2  4  1  0
  4  5  1  1
  5  6  1  0
  6  7  2  0
  7  8  1  0
  8  9  2  0
  9 10  1  0
 10 11  2  0
 11 12  1  0
 12 13  2  0
 13 14  1  0
 14 15  2  0
  4 16  1  0
 16 17  1  0
 16 18  2  0
 15  6  1  0
 15 10  1  0
M  ISO  3   1   1   3   3  17   2
M  END
>  <symbol>  (109) 
D_1Nal

>  <m_abbr>  (109) 
D_1Nal

>  <m_name>  (109) 
D-3-(1-naphthyl)-alanine

>  <m_type>  (109) 
aa

>  <m_subtype>  (109) 
natural

>  <m_Rgroups>  (109) 
[H],[OH],[H]

>  <m_chem_types>  (109) 
1:backbone_n,2:backbone_c,3:backbone_n_mod

>  <m_activation_policy>  (109) 
canonical-sites-v1

$$$$

     RDKit          2D

 11 10  0  0  0  0  0  0  0  0999 V2000
   -2.0616   -1.9640    0.0000 R   0  0  0  0  0  1  0  0  0  0  0  0
   -0.6443   -1.4730    0.0000 N   0  0  0  0  0  0  0  0  0  0  0  0
    0.4896   -2.4550    0.0000 R   0  0  0  0  0  1  0  0  0  0  0  0
   -0.3608    0.0000    0.0000 C   0  0  0  0  0  0  0  0  0  0  0  0
   -1.4947    0.9820    0.0000 C   0  0  0  0  0  0  0  0  0  0  0  0
   -1.2112    2.4550    0.0000 R   0  0  0  0  0  1  0  0  0  0  0  0
   -2.9120    0.4910    0.0000 O   0  0  0  0  0  0  0  0  0  0  0  0
    1.0566    0.4910    0.0000 C   0  0  0  0  0  0  0  0  0  0  0  0
    1.3401    1.9640    0.0000 C   0  0  0  0  0  0  0  0  0  0  0  0
    2.1905   -0.4910    0.0000 O   0  0  0  0  0  0  0  0  0  0  0  0
    3.6078   -0.0000    0.0000 R   0  0  0  0  0  1  0  0  0  0  0  0
  1  2  1  0
  2  3  1  0
  4  2  1  1
  4  5  1  0
  5  6  1  0
  5  7  2  0
  4  8  1  0
  8  9  1  1
  8 10  1  0
 10 11  1  0
M  ISO  4   1   1   3   3   6   2  11   4
M  END
>  <symbol>  (110) 
D_aThr

>  <m_abbr>  (110) 
D_aThr

>  <m_name>  (110) 
D-allo-Threonine

>  <m_type>  (110) 
aa

>  <m_subtype>  (110) 
natural

>  <m_Rgroups>  (110) 
[H],[OH],[H],[H]

>  <m_chem_types>  (110) 
1:backbone_n,2:backbone_c,3:backbone_n_mod,4:hydroxyl

>  <m_activation_policy>  (110) 
canonical-sites-v1

$$$$

     RDKit          2D

 14 14  0  0  0  0  0  0  0  0999 V2000
   -2.3413    2.2101    0.0000 R   0  0  0  0  0  1  0  0  0  0  0  0
   -1.1930    1.2450    0.0000 N   0  0  0  0  0  0  0  0  0  0  0  0
    0.2170    1.7569    0.0000 R   0  0  0  0  0  1  0  0  0  0  0  0
   -1.4546   -0.2320    0.0000 C   0  0  0  0  0  0  0  0  0  0  0  0
   -0.3063   -1.1971    0.0000 C   0  0  0  0  0  0  0  0  0  0  0  0
    1.1037   -0.6851    0.0000 C   0  0  0  0  0  0  0  0  0  0  0  0
    1.3653    0.7919    0.0000 C   0  0  0  0  0  0  0  0  0  0  0  0
    2.7752    1.3038    0.0000 C   0  0  0  0  0  0  0  0  0  0  0  0
    3.9235    0.3387    0.0000 C   0  0  0  0  0  0  0  0  0  0  0  0
    3.6619   -1.1383    0.0000 C   0  0  0  0  0  0  0  0  0  0  0  0
    2.2520   -1.6502    0.0000 C   0  0  0  0  0  0  0  0  0  0  0  0
   -2.8645   -0.7439    0.0000 C   0  0  0  0  0  0  0  0  0  0  0  0
   -4.0128    0.2211    0.0000 R   0  0  0  0  0  1  0  0  0  0  0  0
   -3.1261   -2.2209    0.0000 O   0  0  0  0  0  0  0  0  0  0  0  0
  1  2  1  0
  2  3  1  0
  2  4  1  0
  4  5  1  6
  5  6  1  0
  6  7  1  0
  7  8  1  0
  8  9  1  0
  9 10  1  0
 10 11  1  0
  4 12  1  0
 12 13  1  0
 12 14  2  0
 11  6  1  0
M  ISO  3   1   1   3   3  13   2
M  END
>  <symbol>  (111) 
D_Cha

>  <m_abbr>  (111) 
D_Cha

>  <m_name>  (111) 
D-2-Amino-3-cyclohexyl-propionic acid

>  <m_type>  (111) 
aa

>  <m_subtype>  (111) 
natural

>  <m_Rgroups>  (111) 
[H],[OH],[H]

>  <m_chem_types>  (111) 
1:backbone_n,2:backbone_c,3:backbone_n_mod

>  <m_activation_policy>  (111) 
canonical-sites-v1

$$$$

     RDKit          2D

 12 11  0  0  0  0  0  0  0  0999 V2000
    0.3230    2.5072    0.0000 R   0  0  0  0  0  1  0  0  0  0  0  0
   -0.7795    1.4901    0.0000 N   0  0  0  0  0  0  0  0  0  0  0  0
   -2.2116    1.9364    0.0000 R   0  0  0  0  0  1  0  0  0  0  0  0
   -0.4499    0.0268    0.0000 C   0  0  0  0  0  0  0  0  0  0  0  0
   -1.5524   -0.9903    0.0000 C   0  0  0  0  0  0  0  0  0  0  0  0
   -1.2228   -2.4536    0.0000 R   0  0  0  0  0  1  0  0  0  0  0  0
   -2.9845   -0.5441    0.0000 O   0  0  0  0  0  0  0  0  0  0  0  0
    0.9822   -0.4194    0.0000 C   0  0  0  0  0  0  0  0  0  0  0  0
    1.4284    1.0126    0.0000 C   0  0  0  0  0  0  0  0  0  0  0  0
    0.5360   -1.8515    0.0000 C   0  0  0  0  0  0  0  0  0  0  0  0
    2.4143   -0.8657    0.0000 S   0  0  0  0  0  0  0  0  0  0  0  0
    3.5168    0.1514    0.0000 R   0  0  0  0  0  1  0  0  0  0  0  0
  1  2  1  0
  2  3  1  0
  4  2  1  6
  4  5  1  0
  5  6  1  0
  5  7  2  0
  4  8  1  0
  8  9  1  0
  8 10  1  0
  8 11  1  0
 11 12  1  0
M  ISO  4   1   1   3   3   6   2  12   4
M  END
>  <symbol>  (112) 
D_Pen

>  <m_abbr>  (112) 
D_Pen

>  <m_name>  (112) 
D-penicillamine (3-mercaptovaline)

>  <m_type>  (112) 
aa

>  <m_subtype>  (112) 
natural

>  <m_Rgroups>  (112) 
[H],[OH],[H],[H]

>  <m_chem_types>  (112) 
1:backbone_n,2:backbone_c,3:backbone_n_mod,4:thiol

>  <m_activation_policy>  (112) 
canonical-sites-v1

$$$$

     RDKit          2D

 15 15  0  0  0  0  0  0  0  0999 V2000
   -2.5933    2.2771    0.0000 R   0  0  0  0  0  1  0  0  0  0  0  0
   -1.4913    1.2594    0.0000 N   0  0  0  0  0  0  0  0  0  0  0  0
   -0.0590    1.7049    0.0000 R   0  0  0  0  0  1  0  0  0  0  0  0
   -1.8217   -0.2038    0.0000 C   0  0  0  0  0  0  0  0  0  0  0  0
   -0.7197   -1.2215    0.0000 C   0  0  0  0  0  0  0  0  0  0  0  0
    0.7126   -0.7760    0.0000 C   0  0  0  0  0  0  0  0  0  0  0  0
    1.0430    0.6872    0.0000 C   0  0  0  0  0  0  0  0  0  0  0  0
    2.4753    1.1326    0.0000 C   0  0  0  0  0  0  0  0  0  0  0  0
    3.5773    0.1149    0.0000 C   0  0  0  0  0  0  0  0  0  0  0  0
    5.0096    0.5604    0.0000 Cl  0  0  0  0  0  0  0  0  0  0  0  0
    3.2469   -1.3482    0.0000 C   0  0  0  0  0  0  0  0  0  0  0  0
    1.8146   -1.7937    0.0000 C   0  0  0  0  0  0  0  0  0  0  0  0
   -3.2540   -0.6493    0.0000 C   0  0  0  0  0  0  0  0  0  0  0  0
   -4.3559    0.3684    0.0000 R   0  0  0  0  0  1  0  0  0  0  0  0
   -3.5844   -2.1124    0.0000 O   0  0  0  0  0  0  0  0  0  0  0  0
  1  2  1  0
  2  3  1  0
  2  4  1  0
  4  5  1  6
  5  6  1  0
  6  7  1  0
  7  8  2  0
  8  9  1  0
  9 10  1  0
  9 11  2  0
 11 12  1  0
  4 13  1  0
 13 14  1  0
 13 15  2  0
 12  6  2  0
M  ISO  3   1   1   3   3  14   2
M  END
>  <symbol>  (113) 
D_Phe_4Cl

>  <m_abbr>  (113) 
D_Phe_4Cl

>  <m_name>  (113) 
4-Chloro-D-phenylalanine

>  <m_type>  (113) 
aa

>  <m_subtype>  (113) 
natural

>  <m_Rgroups>  (113) 
[H],[OH],[H]

>  <m_chem_types>  (113) 
1:backbone_n,2:backbone_c,3:backbone_n_mod

>  <m_activation_policy>  (113) 
canonical-sites-v1

$$$$

     RDKit          2D

 16 16  0  0  0  0  0  0  0  0999 V2000
   -3.7273    2.1932    0.0000 R   0  0  0  0  0  1  0  0  0  0  0  0
   -2.4953    1.3376    0.0000 N   0  0  0  0  0  0  0  0  0  0  0  0
   -1.1383    1.9767    0.0000 R   0  0  0  0  0  1  0  0  0  0  0  0
   -2.6203   -0.1572    0.0000 C   0  0  0  0  0  0  0  0  0  0  0  0
   -1.3883   -1.0129    0.0000 C   0  0  0  0  0  0  0  0  0  0  0  0
   -0.0312   -0.3737    0.0000 O   0  0  0  0  0  0  0  0  0  0  0  0
    1.2008   -1.2293    0.0000 C   0  0  0  0  0  0  0  0  0  0  0  0
    2.5578   -0.5902    0.0000 C   0  0  0  0  0  0  0  0  0  0  0  0
    2.6828    0.9046    0.0000 C   0  0  0  0  0  0  0  0  0  0  0  0
    4.0398    1.5438    0.0000 C   0  0  0  0  0  0  0  0  0  0  0  0
    5.2718    0.6882    0.0000 C   0  0  0  0  0  0  0  0  0  0  0  0
    5.1468   -0.8066    0.0000 C   0  0  0  0  0  0  0  0  0  0  0  0
    3.7898   -1.4458    0.0000 C   0  0  0  0  0  0  0  0  0  0  0  0
   -3.9773   -0.7964    0.0000 C   0  0  0  0  0  0  0  0  0  0  0  0
   -5.2093    0.0592    0.0000 R   0  0  0  0  0  1  0  0  0  0  0  0
   -4.1023   -2.2912    0.0000 O   0  0  0  0  0  0  0  0  0  0  0  0
  1  2  1  0
  2  3  1  0
  2  4  1  0
  4  5  1  6
  5  6  1  0
  6  7  1  0
  7  8  1  0
  8  9  2  0
  9 10  1  0
 10 11  2  0
 11 12  1  0
 12 13  2  0
  4 14  1  0
 14 15  1  0
 14 16  2  0
 13  8  1  0
M  ISO  3   1   1   3   3  15   2
M  END
>  <symbol>  (114) 
D_Ser_Bn

>  <m_abbr>  (114) 
D_Ser_Bn

>  <m_name>  (114) 
O-Benzyl-D-serine

>  <m_type>  (114) 
aa

>  <m_subtype>  (114) 
natural

>  <m_Rgroups>  (114) 
[H],[OH],[H]

>  <m_chem_types>  (114) 
1:backbone_n,2:backbone_c,3:backbone_n_mod

>  <m_activation_policy>  (114) 
canonical-sites-v1

$$$$

     RDKit          2D

 17 17  0  0  0  0  0  0  0  0999 V2000
   -3.2603    2.1894    0.0000 R   0  0  0  0  0  1  0  0  0  0  0  0
   -2.0315    1.3291    0.0000 N   0  0  0  0  0  0  0  0  0  0  0  0
   -0.6721    1.9631    0.0000 R   0  0  0  0  0  1  0  0  0  0  0  0
   -2.1622   -0.1652    0.0000 C   0  0  0  0  0  0  0  0  0  0  0  0
   -0.9334   -1.0255    0.0000 C   0  0  0  0  0  0  0  0  0  0  0  0
    0.4260   -0.3915    0.0000 N   0  0  0  0  0  0  0  0  0  0  0  0
    0.5567    1.1028    0.0000 C   0  0  0  0  0  0  0  0  0  0  0  0
    1.9161    1.7367    0.0000 C   0  0  0  0  0  0  0  0  0  0  0  0
    3.1449    0.8764    0.0000 C   0  0  0  0  0  0  0  0  0  0  0  0
    4.5043    1.5104    0.0000 O   0  0  0  0  0  0  0  0  0  0  0  0
    3.0142   -0.6179    0.0000 N   0  0  0  0  0  0  0  0  0  0  0  0
    4.2429   -1.4782    0.0000 R   0  0  0  0  0  1  0  0  0  0  0  0
    1.6547   -1.2519    0.0000 C   0  0  0  0  0  0  0  0  0  0  0  0
    1.5241   -2.7462    0.0000 O   0  0  0  0  0  0  0  0  0  0  0  0
   -3.5216   -0.7992    0.0000 C   0  0  0  0  0  0  0  0  0  0  0  0
   -4.7504    0.0612    0.0000 R   0  0  0  0  0  1  0  0  0  0  0  0
   -3.6523   -2.2935    0.0000 O   0  0  0  0  0  0  0  0  0  0  0  0
  1  2  1  0
  2  3  1  0
  2  4  1  0
  4  5  1  1
  5  6  1  0
  6  7  1  0
  7  8  2  0
  8  9  1  0
  9 10  2  0
  9 11  1  0
 11 12  1  0
 11 13  1  0
 13 14  2  0
  4 15  1  0
 15 16  1  0
 15 17  2  0
 13  6  1  0
M  ISO  4   1   1   3   3  12   4  16   2
M  END
>  <symbol>  (115) 
Wil

>  <m_abbr>  (115) 
Wil

>  <m_name>  (115) 
Alpha-amino-2,4-dioxopyrimidinepropanoic acid

>  <m_type>  (115) 
aa

>  <m_subtype>  (115) 
natural

>  <m_Rgroups>  (115) 
[H],[OH],[H],[H]

>  <m_chem_types>  (115) 
1:backbone_n,2:backbone_c,3:backbone_n_mod,4:aromatic_nh

>  <m_activation_policy>  (115) 
canonical-sites-v1

$$$$

     RDKit          2D

  5  4  0  0  0  0  0  0  0  0999 V2000
   -1.2990   -0.7500    0.0000 R   0  0  0  0  0  1  0  0  0  0  0  0
    0.0000   -0.0000    0.0000 S   0  0  0  0  0  0  0  0  0  0  0  0
    1.2990    0.7500    0.0000 C   0  0  0  0  0  0  0  0  0  0  0  0
    0.7500   -1.2990    0.0000 O   0  0  0  0  0  0  0  0  0  0  0  0
   -0.7500    1.2990    0.0000 O   0  0  0  0  0  0  0  0  0  0  0  0
  1  2  1  0
  2  3  1  0
  2  4  2  0
  2  5  2  0
M  ISO  1   1   2
M  END
>  <symbol>  (116) 
MsO

>  <m_abbr>  (116) 
MsO

>  <m_name>  (116) 
Mesylate

>  <m_type>  (116) 
cap

>  <m_subtype>  (116) 
cap

>  <m_Rgroups>  (116) 
None,[OH]

>  <m_chem_types>  (116) 
2:sulfonyl_s

>  <m_activation_policy>  (116) 
canonical-sites-v1

$$$$

     RDKit          2D

 13 14  0  0  0  0  0  0  0  0999 V2000
   -1.0632    2.3910    0.0000 R   0  0  0  0  0  1  0  0  0  0  0  0
   -0.5351    0.9871    0.0000 N   0  0  0  0  0  0  0  0  0  0  0  0
   -1.3605   -0.2654    0.0000 C   0  0  0  0  0  0  0  0  0  0  0  0
   -2.8589   -0.3338    0.0000 C   0  0  0  0  0  0  0  0  0  0  0  0
   -3.6674    0.9296    0.0000 R   0  0  0  0  0  1  0  0  0  0  0  0
   -3.5489   -1.6657    0.0000 O   0  0  0  0  0  0  0  0  0  0  0  0
   -0.4244   -1.4375    0.0000 C   0  0  0  0  0  0  0  0  0  0  0  0
    0.9796   -0.9093    0.0000 C   0  0  0  0  0  0  0  0  0  0  0  0
    2.3115   -1.5993    0.0000 C   0  0  0  0  0  0  0  0  0  0  0  0
    3.5750   -0.7908    0.0000 C   0  0  0  0  0  0  0  0  0  0  0  0
    3.5065    0.7076    0.0000 C   0  0  0  0  0  0  0  0  0  0  0  0
    2.1746    1.3976    0.0000 C   0  0  0  0  0  0  0  0  0  0  0  0
    0.9112    0.5891    0.0000 C   0  0  0  0  0  0  0  0  0  0  0  0
  1  2  1  0
  2  3  1  0
  3  4  1  1
  4  5  1  0
  4  6  2  0
  3  7  1  0
  8  7  1  1
  8  9  1  0
  9 10  1  0
 10 11  1  0
 11 12  1  0
 13 12  1  1
 13  2  1  0
 13  8  1  0
M  ISO  2   1   1   5   2
M  END
>  <symbol>  (117) 
Oic_3aS_7aS

>  <m_abbr>  (117) 
Oic_3aS_7aS

>  <m_name>  (117) 
Perhydroindolic acid

>  <m_type>  (117) 
aa

>  <m_subtype>  (117) 
natural

>  <m_Rgroups>  (117) 
[H],[OH]

>  <m_chem_types>  (117) 
1:backbone_n,2:backbone_c

>  <m_activation_policy>  (117) 
canonical-sites-v1

$$$$

     RDKit          2D

 10 10  0  0  0  0  0  0  0  0999 V2000
    0.4166   -2.3203    0.0000 R   0  0  0  0  0  1  0  0  0  0  0  0
   -0.3975   -1.0604    0.0000 N   0  0  0  0  0  0  0  0  0  0  0  0
   -1.8956   -1.1355    0.0000 C   0  0  0  0  0  0  0  0  0  0  0  0
   -2.7096    0.1244    0.0000 C   0  0  0  0  0  0  0  0  0  0  0  0
   -2.0255    1.4594    0.0000 C   0  0  0  0  0  0  0  0  0  0  0  0
   -0.5274    1.5344    0.0000 C   0  0  0  0  0  0  0  0  0  0  0  0
    0.2866    0.2745    0.0000 C   0  0  0  0  0  0  0  0  0  0  0  0
    1.7848    0.3495    0.0000 C   0  0  0  0  0  0  0  0  0  0  0  0
    2.5988   -0.9104    0.0000 R   0  0  0  0  0  1  0  0  0  0  0  0
    2.4688    1.6844    0.0000 O   0  0  0  0  0  0  0  0  0  0  0  0
  1  2  1  0
  2  3  1  0
  3  4  1  0
  4  5  1  0
  5  6  1  0
  6  7  1  0
  7  8  1  1
  8  9  1  0
  8 10  2  0
  7  2  1  0
M  ISO  2   1   1   9   2
M  END
>  <symbol>  (118) 
Pip

>  <m_abbr>  (118) 
Pip

>  <m_name>  (118) 
Pipecolic acid

>  <m_type>  (118) 
aa

>  <m_subtype>  (118) 
natural

>  <m_Rgroups>  (118) 
[H],[OH]

>  <m_chem_types>  (118) 
1:backbone_n,2:backbone_c

>  <m_activation_policy>  (118) 
canonical-sites-v1

$$$$

     RDKit          2D

 14 14  0  0  0  0  0  0  0  0999 V2000
   -2.3413    2.2101    0.0000 R   0  0  0  0  0  1  0  0  0  0  0  0
   -1.1930    1.2450    0.0000 N   0  0  0  0  0  0  0  0  0  0  0  0
    0.2170    1.7569    0.0000 R   0  0  0  0  0  1  0  0  0  0  0  0
   -1.4546   -0.2320    0.0000 C   0  0  0  0  0  0  0  0  0  0  0  0
   -0.3063   -1.1971    0.0000 C   0  0  0  0  0  0  0  0  0  0  0  0
    1.1037   -0.6851    0.0000 C   0  0  0  0  0  0  0  0  0  0  0  0
    1.3653    0.7919    0.0000 C   0  0  0  0  0  0  0  0  0  0  0  0
    2.7752    1.3038    0.0000 C   0  0  0  0  0  0  0  0  0  0  0  0
    3.9235    0.3387    0.0000 C   0  0  0  0  0  0  0  0  0  0  0  0
    3.6619   -1.1383    0.0000 N   0  0  0  0  0  0  0  0  0  0  0  0
    2.2520   -1.6502    0.0000 C   0  0  0  0  0  0  0  0  0  0  0  0
   -2.8645   -0.7439    0.0000 C   0  0  0  0  0  0  0  0  0  0  0  0
   -4.0128    0.2211    0.0000 R   0  0  0  0  0  1  0  0  0  0  0  0
   -3.1261   -2.2209    0.0000 O   0  0  0  0  0  0  0  0  0  0  0  0
  1  2  1  0
  2  3  1  0
  2  4  1  0
  4  5  1  1
  5  6  1  0
  6  7  2  0
  7  8  1  0
  8  9  2  0
  9 10  1  0
 10 11  2  0
  4 12  1  0
 12 13  1  0
 12 14  2  0
 11  6  1  0
M  ISO  3   1   1   3   3  13   2
M  END
>  <symbol>  (119) 
3Pal

>  <m_abbr>  (119) 
3Pal

>  <m_name>  (119) 
3-(2-pyridyl)-alanine

>  <m_type>  (119) 
aa

>  <m_subtype>  (119) 
natural

>  <m_Rgroups>  (119) 
[H],[OH],[H]

>  <m_chem_types>  (119) 
1:backbone_n,2:backbone_c,3:backbone_n_mod

>  <m_activation_policy>  (119) 
canonical-sites-v1

$$$$

     RDKit          2D

 14 14  0  0  0  0  0  0  0  0999 V2000
   -2.3413    2.2101    0.0000 R   0  0  0  0  0  1  0  0  0  0  0  0
   -1.1930    1.2450    0.0000 N   0  0  0  0  0  0  0  0  0  0  0  0
    0.2170    1.7569    0.0000 R   0  0  0  0  0  1  0  0  0  0  0  0
   -1.4546   -0.2320    0.0000 C   0  0  0  0  0  0  0  0  0  0  0  0
   -0.3063   -1.1971    0.0000 C   0  0  0  0  0  0  0  0  0  0  0  0
    1.1037   -0.6851    0.0000 C   0  0  0  0  0  0  0  0  0  0  0  0
    1.3653    0.7919    0.0000 C   0  0  0  0  0  0  0  0  0  0  0  0
    2.7752    1.3038    0.0000 C   0  0  0  0  0  0  0  0  0  0  0  0
    3.9235    0.3387    0.0000 N   0  0  0  0  0  0  0  0  0  0  0  0
    3.6619   -1.1383    0.0000 C   0  0  0  0  0  0  0  0  0  0  0  0
    2.2520   -1.6502    0.0000 C   0  0  0  0  0  0  0  0  0  0  0  0
   -2.8645   -0.7439    0.0000 C   0  0  0  0  0  0  0  0  0  0  0  0
   -4.0128    0.2211    0.0000 R   0  0  0  0  0  1  0  0  0  0  0  0
   -3.1261   -2.2209    0.0000 O   0  0  0  0  0  0  0  0  0  0  0  0
  1  2  1  0
  2  3  1  0
  2  4  1  0
  4  5  1  1
  5  6  1  0
  6  7  1  0
  7  8  2  0
  8  9  1  0
  9 10  2  0
 10 11  1  0
  4 12  1  0
 12 13  1  0
 12 14  2  0
 11  6  2  0
M  ISO  3   1   1   3   3  13   2
M  END
>  <symbol>  (120) 
4Pal

>  <m_abbr>  (120) 
4Pal

>  <m_name>  (120) 
3-(4-Pyridyl)-alanine

>  <m_type>  (120) 
aa

>  <m_subtype>  (120) 
natural

>  <m_Rgroups>  (120) 
[H],[OH],[H]

>  <m_chem_types>  (120) 
1:backbone_n,2:backbone_c,3:backbone_n_mod

>  <m_activation_policy>  (120) 
canonical-sites-v1

$$$$

     RDKit          2D

  9  8  0  0  0  0  0  0  0  0999 V2000
   -2.2500    1.0104    0.0000 R   0  0  0  0  0  1  0  0  0  0  0  0
   -1.5000   -0.2887    0.0000 N   0  0  0  0  0  0  0  0  0  0  0  0
   -2.2500   -1.5877    0.0000 R   0  0  0  0  0  1  0  0  0  0  0  0
   -0.0000   -0.2887    0.0000 C   0  0  0  0  0  0  0  0  0  0  0  0
    0.7500   -1.5877    0.0000 C   0  0  0  0  0  0  0  0  0  0  0  0
    2.2500   -1.5877    0.0000 C   0  0  0  0  0  0  0  0  0  0  0  0
    0.7500    1.0104    0.0000 C   0  0  0  0  0  0  0  0  0  0  0  0
    2.2500    1.0104    0.0000 R   0  0  0  0  0  1  0  0  0  0  0  0
   -0.0000    2.3094    0.0000 O   0  0  0  0  0  0  0  0  0  0  0  0
  1  2  1  0
  2  3  1  0
  2  4  1  0
  4  5  1  6
  5  6  1  0
  4  7  1  0
  7  8  1  0
  7  9  2  0
M  ISO  3   1   1   3   3   8   2
M  END
>  <symbol>  (121) 
Abu

>  <m_abbr>  (121) 
Abu

>  <m_name>  (121) 
2-Aminobutanoic acid

>  <m_type>  (121) 
aa

>  <m_subtype>  (121) 
natural

>  <m_Rgroups>  (121) 
[H],[OH],[H]

>  <m_chem_types>  (121) 
1:backbone_n,2:backbone_c,3:backbone_n_mod

>  <m_activation_policy>  (121) 
canonical-sites-v1

$$$$

     RDKit          2D

 14 13  0  0  0  0  0  0  0  0999 V2000
   -4.6155   -0.4823    0.0000 R   0  0  0  0  0  1  0  0  0  0  0  0
   -3.2318   -1.0614    0.0000 N   0  0  0  0  0  0  0  0  0  0  0  0
   -3.0416   -2.5493    0.0000 R   0  0  0  0  0  1  0  0  0  0  0  0
   -2.0384   -0.1527    0.0000 C   0  0  0  0  0  0  0  0  0  0  0  0
   -0.6548   -0.7318    0.0000 C   0  0  0  0  0  0  0  0  0  0  0  0
    0.5386    0.1769    0.0000 C   0  0  0  0  0  0  0  0  0  0  0  0
    1.9223   -0.4023    0.0000 C   0  0  0  0  0  0  0  0  0  0  0  0
    3.1157    0.5065    0.0000 C   0  0  0  0  0  0  0  0  0  0  0  0
    4.4994   -0.0727    0.0000 C   0  0  0  0  0  0  0  0  0  0  0  0
    5.6928    0.8361    0.0000 R   0  0  0  0  0  1  0  0  0  0  0  0
    4.6897   -1.5606    0.0000 O   0  0  0  0  0  0  0  0  0  0  0  0
   -2.2287    1.3352    0.0000 C   0  0  0  0  0  0  0  0  0  0  0  0
   -1.0353    2.2439    0.0000 R   0  0  0  0  0  1  0  0  0  0  0  0
   -3.6124    1.9144    0.0000 O   0  0  0  0  0  0  0  0  0  0  0  0
  1  2  1  0
  2  3  1  0
  2  4  1  0
  4  5  1  6
  5  6  1  0
  6  7  1  0
  7  8  1  0
  8  9  1  0
  9 10  1  0
  9 11  2  0
  4 12  1  0
 12 13  1  0
 12 14  2  0
M  ISO  4   1   1   3   3  10   4  13   2
M  END
>  <symbol>  (122) 
Apm

>  <m_abbr>  (122) 
Apm

>  <m_name>  (122) 
2-Aminopimelic acid

>  <m_type>  (122) 
aa

>  <m_subtype>  (122) 
natural

>  <m_Rgroups>  (122) 
[H],[OH],[H],[OH]

>  <m_chem_types>  (122) 
1:backbone_n,2:backbone_c,3:backbone_n_mod,4:carboxyl

>  <m_activation_policy>  (122) 
canonical-sites-v1

$$$$

     RDKit          2D

 13 13  0  0  0  0  0  0  0  0999 V2000
    3.1731    1.2990    0.0000 R   0  0  0  0  0  1  0  0  0  0  0  0
    1.6731    1.2990    0.0000 N   0  0  0  0  0  0  0  0  0  0  0  0
    0.9231    2.5981    0.0000 R   0  0  0  0  0  1  0  0  0  0  0  0
    0.9231    0.0000    0.0000 C   0  0  0  0  0  0  0  0  0  0  0  0
    1.6731   -1.2990    0.0000 C   0  0  0  0  0  0  0  0  0  0  0  0
    3.1731   -1.2990    0.0000 R   0  0  0  0  0  1  0  0  0  0  0  0
    0.9231   -2.5981    0.0000 O   0  0  0  0  0  0  0  0  0  0  0  0
   -0.5769   -0.0000    0.0000 C   0  0  0  0  0  0  0  0  0  0  0  0
   -1.3269   -1.2990    0.0000 C   0  0  0  0  0  0  0  0  0  0  0  0
   -2.8269   -1.2990    0.0000 C   0  0  0  0  0  0  0  0  0  0  0  0
   -3.5769    0.0000    0.0000 C   0  0  0  0  0  0  0  0  0  0  0  0
   -2.8269    1.2990    0.0000 C   0  0  0  0  0  0  0  0  0  0  0  0
   -1.3269    1.2990    0.0000 C   0  0  0  0  0  0  0  0  0  0  0  0
  1  2  1  0
  2  3  1  0
  4  2  1  6
  4  5  1  0
  5  6  1  0
  5  7  2  0
  4  8  1  0
  8  9  1  0
  9 10  1  0
 10 11  1  0
 11 12  1  0
 12 13  1  0
 13  8  1  0
M  ISO  3   1   1   3   3   6   2
M  END
>  <symbol>  (123) 
Chg

>  <m_abbr>  (123) 
Chg

>  <m_name>  (123) 
Alpha-cyclohexylglycine

>  <m_type>  (123) 
aa

>  <m_subtype>  (123) 
natural

>  <m_Rgroups>  (123) 
[H],[OH],[H]

>  <m_chem_types>  (123) 
1:backbone_n,2:backbone_c,3:backbone_n_mod

>  <m_activation_policy>  (123) 
canonical-sites-v1

$$$$

     RDKit          2D

 12 11  0  0  0  0  0  0  0  0999 V2000
   -3.5281   -0.5638    0.0000 R   0  0  0  0  0  1  0  0  0  0  0  0
   -2.1179   -1.0748    0.0000 N   0  0  0  0  0  0  0  0  0  0  0  0
   -1.8553   -2.5517    0.0000 R   0  0  0  0  0  1  0  0  0  0  0  0
   -0.9702   -0.1090    0.0000 C   0  0  0  0  0  0  0  0  0  0  0  0
    0.4401   -0.6200    0.0000 C   0  0  0  0  0  0  0  0  0  0  0  0
    1.5878    0.3458    0.0000 C   0  0  0  0  0  0  0  0  0  0  0  0
    2.9981   -0.1653    0.0000 N   0  0  0  0  0  0  0  0  0  0  0  0
    4.1458    0.8005    0.0000 R   0  0  0  0  0  1  0  0  0  0  0  0
    3.2606   -1.6421    0.0000 R   0  0  0  0  0  1  0  0  0  0  0  0
   -1.2327    1.3678    0.0000 C   0  0  0  0  0  0  0  0  0  0  0  0
   -0.0850    2.3336    0.0000 R   0  0  0  0  0  1  0  0  0  0  0  0
   -2.6430    1.8789    0.0000 O   0  0  0  0  0  0  0  0  0  0  0  0
  1  2  1  0
  2  3  1  0
  2  4  1  0
  4  5  1  6
  5  6  1  0
  6  7  1  0
  7  8  1  0
  7  9  1  0
  4 10  1  0
 10 11  1  0
 10 12  2  0
M  ISO  5   1   1   3   3   8   4   9   5  11   2
M  END
>  <symbol>  (124) 
Dab

>  <m_abbr>  (124) 
Dab

>  <m_name>  (124) 
2,4-diaminobutanoic acid

>  <m_type>  (124) 
aa

>  <m_subtype>  (124) 
natural

>  <m_Rgroups>  (124) 
[H],[OH],[H],[H],[H]

>  <m_chem_types>  (124) 
1:backbone_n,2:backbone_c,3:backbone_n_mod,4:amine_primary,5:amine_primary

>  <m_activation_policy>  (124) 
canonical-sites-v1

$$$$

     RDKit          2D

 11 10  0  0  0  0  0  0  0  0999 V2000
   -3.0813    0.0866    0.0000 R   0  0  0  0  0  1  0  0  0  0  0  0
   -1.8784   -0.8095    0.0000 N   0  0  0  0  0  0  0  0  0  0  0  0
   -2.0531   -2.2993    0.0000 R   0  0  0  0  0  1  0  0  0  0  0  0
   -0.5009   -0.2159    0.0000 C   0  0  0  0  0  0  0  0  0  0  0  0
    0.7020   -1.1120    0.0000 C   0  0  0  0  0  0  0  0  0  0  0  0
    2.0795   -0.5184    0.0000 N   0  0  0  0  0  0  0  0  0  0  0  0
    3.2824   -1.4145    0.0000 R   0  0  0  0  0  1  0  0  0  0  0  0
    2.2541    0.9714    0.0000 R   0  0  0  0  0  1  0  0  0  0  0  0
   -0.3263    1.2739    0.0000 C   0  0  0  0  0  0  0  0  0  0  0  0
    1.0513    1.8676    0.0000 R   0  0  0  0  0  1  0  0  0  0  0  0
   -1.5291    2.1701    0.0000 O   0  0  0  0  0  0  0  0  0  0  0  0
  1  2  1  0
  2  3  1  0
  2  4  1  0
  4  5  1  6
  5  6  1  0
  6  7  1  0
  6  8  1  0
  4  9  1  0
  9 10  1  0
  9 11  2  0
M  ISO  5   1   1   3   3   7   4   8   5  10   2
M  END
>  <symbol>  (125) 
Dap

>  <m_abbr>  (125) 
Dap

>  <m_name>  (125) 
2,3-diaminopropanoic acid

>  <m_type>  (125) 
aa

>  <m_subtype>  (125) 
natural

>  <m_Rgroups>  (125) 
[H],[OH],[H],[H],[H]

>  <m_chem_types>  (125) 
1:backbone_n,2:backbone_c,3:backbone_n_mod,4:amine_primary,5:amine_primary

>  <m_activation_policy>  (125) 
canonical-sites-v1

$$$$

     RDKit          2D

 14 14  0  0  0  0  0  0  0  0999 V2000
   -2.3413    2.2101    0.0000 R   0  0  0  0  0  1  0  0  0  0  0  0
   -1.1930    1.2450    0.0000 N   0  0  0  0  0  0  0  0  0  0  0  0
    0.2170    1.7569    0.0000 R   0  0  0  0  0  1  0  0  0  0  0  0
   -1.4546   -0.2320    0.0000 C   0  0  0  0  0  0  0  0  0  0  0  0
   -0.3063   -1.1971    0.0000 C   0  0  0  0  0  0  0  0  0  0  0  0
    1.1037   -0.6851    0.0000 C   0  0  0  0  0  0  0  0  0  0  0  0
    1.3653    0.7919    0.0000 C   0  0  0  0  0  0  0  0  0  0  0  0
    2.7752    1.3038    0.0000 C   0  0  0  0  0  0  0  0  0  0  0  0
    3.9235    0.3387    0.0000 C   0  0  0  0  0  0  0  0  0  0  0  0
    3.6619   -1.1383    0.0000 N   0  0  0  0  0  0  0  0  0  0  0  0
    2.2520   -1.6502    0.0000 C   0  0  0  0  0  0  0  0  0  0  0  0
   -2.8645   -0.7439    0.0000 C   0  0  0  0  0  0  0  0  0  0  0  0
   -4.0128    0.2211    0.0000 R   0  0  0  0  0  1  0  0  0  0  0  0
   -3.1261   -2.2209    0.0000 O   0  0  0  0  0  0  0  0  0  0  0  0
  1  2  1  0
  2  3  1  0
  2  4  1  0
  4  5  1  6
  5  6  1  0
  6  7  2  0
  7  8  1  0
  8  9  2  0
  9 10  1  0
 10 11  2  0
  4 12  1  0
 12 13  1  0
 12 14  2  0
 11  6  1  0
M  ISO  3   1   1   3   3  13   2
M  END
>  <symbol>  (126) 
D_3Pal

>  <m_abbr>  (126) 
D_3Pal

>  <m_name>  (126) 
D-3-(2-pyridyl)-alanine

>  <m_type>  (126) 
aa

>  <m_subtype>  (126) 
natural

>  <m_Rgroups>  (126) 
[H],[OH],[H]

>  <m_chem_types>  (126) 
1:backbone_n,2:backbone_c,3:backbone_n_mod

>  <m_activation_policy>  (126) 
canonical-sites-v1

$$$$

     RDKit          2D

 10  9  0  0  0  0  0  0  0  0999 V2000
   -2.0677    1.5945    0.0000 R   0  0  0  0  0  1  0  0  0  0  0  0
   -1.6378    0.1574    0.0000 N   0  0  0  0  0  0  0  0  0  0  0  0
   -2.6675   -0.9334    0.0000 R   0  0  0  0  0  1  0  0  0  0  0  0
   -0.1783   -0.1889    0.0000 C   0  0  0  0  0  0  0  0  0  0  0  0
   -0.5246   -1.6484    0.0000 C   0  0  0  0  0  0  0  0  0  0  0  0
    0.1680    1.2705    0.0000 C   0  0  0  0  0  0  0  0  0  0  0  0
    1.6050    1.7004    0.0000 C   0  0  0  0  0  0  0  0  0  0  0  0
    1.2811   -0.5352    0.0000 C   0  0  0  0  0  0  0  0  0  0  0  0
    2.3108    0.5556    0.0000 R   0  0  0  0  0  1  0  0  0  0  0  0
    1.7110   -1.9723    0.0000 O   0  0  0  0  0  0  0  0  0  0  0  0
  1  2  1  0
  2  3  1  0
  2  4  1  0
  4  5  1  1
  4  6  1  0
  6  7  1  0
  4  8  1  0
  8  9  1  0
  8 10  2  0
M  ISO  3   1   1   3   3   9   2
M  END
>  <symbol>  (127) 
D_aMeAbu

>  <m_abbr>  (127) 
D_aMeAbu

>  <m_name>  (127) 
D-Isovaline

>  <m_type>  (127) 
aa

>  <m_subtype>  (127) 
natural

>  <m_Rgroups>  (127) 
[H],[OH],[H]

>  <m_chem_types>  (127) 
1:backbone_n,2:backbone_c,3:backbone_n_mod

>  <m_activation_policy>  (127) 
canonical-sites-v1

$$$$

     RDKit          2D

 13 13  0  0  0  0  0  0  0  0999 V2000
    3.1731    1.2990    0.0000 R   0  0  0  0  0  1  0  0  0  0  0  0
    1.6731    1.2990    0.0000 N   0  0  0  0  0  0  0  0  0  0  0  0
    0.9231    2.5981    0.0000 R   0  0  0  0  0  1  0  0  0  0  0  0
    0.9231    0.0000    0.0000 C   0  0  0  0  0  0  0  0  0  0  0  0
    1.6731   -1.2990    0.0000 C   0  0  0  0  0  0  0  0  0  0  0  0
    3.1731   -1.2990    0.0000 R   0  0  0  0  0  1  0  0  0  0  0  0
    0.9231   -2.5981    0.0000 O   0  0  0  0  0  0  0  0  0  0  0  0
   -0.5769   -0.0000    0.0000 C   0  0  0  0  0  0  0  0  0  0  0  0
   -1.3269   -1.2990    0.0000 C   0  0  0  0  0  0  0  0  0  0  0  0
   -2.8269   -1.2990    0.0000 C   0  0  0  0  0  0  0  0  0  0  0  0
   -3.5769    0.0000    0.0000 C   0  0  0  0  0  0  0  0  0  0  0  0
   -2.8269    1.2990    0.0000 C   0  0  0  0  0  0  0  0  0  0  0  0
   -1.3269    1.2990    0.0000 C   0  0  0  0  0  0  0  0  0  0  0  0
  1  2  1  0
  2  3  1  0
  4  2  1  1
  4  5  1  0
  5  6  1  0
  5  7  2  0
  4  8  1  0
  8  9  1  0
  9 10  1  0
 10 11  1  0
 11 12  1  0
 12 13  1  0
 13  8  1  0
M  ISO  3   1   1   3   3   6   2
M  END
>  <symbol>  (128) 
D_Chg

>  <m_abbr>  (128) 
D_Chg

>  <m_name>  (128) 
D-Alpha-cyclohexylglycine

>  <m_type>  (128) 
aa

>  <m_subtype>  (128) 
natural

>  <m_Rgroups>  (128) 
[H],[OH],[H]

>  <m_chem_types>  (128) 
1:backbone_n,2:backbone_c,3:backbone_n_mod

>  <m_activation_policy>  (128) 
canonical-sites-v1

$$$$

     RDKit          2D

 17 16  0  0  0  0  0  0  0  0999 V2000
   -5.2288    0.3974    0.0000 R   0  0  0  0  0  1  0  0  0  0  0  0
   -4.1155   -0.6079    0.0000 N   0  0  0  0  0  0  0  0  0  0  0  0
   -4.4295   -2.0747    0.0000 R   0  0  0  0  0  1  0  0  0  0  0  0
   -2.6883   -0.1464    0.0000 C   0  0  0  0  0  0  0  0  0  0  0  0
   -1.5750   -1.1517    0.0000 C   0  0  0  0  0  0  0  0  0  0  0  0
   -0.1478   -0.6902    0.0000 C   0  0  0  0  0  0  0  0  0  0  0  0
    0.9655   -1.6955    0.0000 C   0  0  0  0  0  0  0  0  0  0  0  0
    2.3928   -1.2341    0.0000 N   0  0  0  0  0  0  0  0  0  0  0  0
    3.5060   -2.2394    0.0000 R   0  0  0  0  0  1  0  0  0  0  0  0
    2.7067    0.2327    0.0000 C   0  0  0  0  0  0  0  0  0  0  0  0
    1.5935    1.2380    0.0000 O   0  0  0  0  0  0  0  0  0  0  0  0
    4.1340    0.6942    0.0000 N   0  0  0  0  0  0  0  0  0  0  0  0
    4.4480    2.1609    0.0000 R   0  0  0  0  0  1  0  0  0  0  0  0
    5.2473   -0.3111    0.0000 R   0  0  0  0  0  1  0  0  0  0  0  0
   -2.3743    1.3204    0.0000 C   0  0  0  0  0  0  0  0  0  0  0  0
   -0.9470    1.7818    0.0000 R   0  0  0  0  0  1  0  0  0  0  0  0
   -3.4876    2.3257    0.0000 O   0  0  0  0  0  0  0  0  0  0  0  0
  1  2  1  0
  2  3  1  0
  2  4  1  0
  4  5  1  1
  5  6  1  0
  6  7  1  0
  7  8  1  0
  8  9  1  0
  8 10  1  0
 10 11  2  0
 10 12  1  0
 12 13  1  0
 12 14  1  0
  4 15  1  0
 15 16  1  0
 15 17  2  0
M  ISO  6   1   1   3   3   9   6  13   4  14   5  16   2
M  END
>  <symbol>  (129) 
D_Cit

>  <m_abbr>  (129) 
D_Cit

>  <m_name>  (129) 
D-Citrullin

>  <m_type>  (129) 
aa

>  <m_subtype>  (129) 
natural

>  <m_Rgroups>  (129) 
[H],[OH],[H],[H],[H],[H]

>  <m_chem_types>  (129) 
1:backbone_n,2:backbone_c,3:backbone_n_mod,4:urea_nh,5:urea_nh,6:urea_nh

>  <m_activation_policy>  (129) 
canonical-sites-v1

$$$$

     RDKit          2D

 12 11  0  0  0  0  0  0  0  0999 V2000
   -3.5281   -0.5638    0.0000 R   0  0  0  0  0  1  0  0  0  0  0  0
   -2.1179   -1.0748    0.0000 N   0  0  0  0  0  0  0  0  0  0  0  0
   -1.8553   -2.5517    0.0000 R   0  0  0  0  0  1  0  0  0  0  0  0
   -0.9702   -0.1090    0.0000 C   0  0  0  0  0  0  0  0  0  0  0  0
    0.4401   -0.6200    0.0000 C   0  0  0  0  0  0  0  0  0  0  0  0
    1.5878    0.3458    0.0000 C   0  0  0  0  0  0  0  0  0  0  0  0
    2.9981   -0.1653    0.0000 N   0  0  0  0  0  0  0  0  0  0  0  0
    4.1458    0.8005    0.0000 R   0  0  0  0  0  1  0  0  0  0  0  0
    3.2606   -1.6421    0.0000 R   0  0  0  0  0  1  0  0  0  0  0  0
   -1.2327    1.3678    0.0000 C   0  0  0  0  0  0  0  0  0  0  0  0
   -0.0850    2.3336    0.0000 R   0  0  0  0  0  1  0  0  0  0  0  0
   -2.6430    1.8789    0.0000 O   0  0  0  0  0  0  0  0  0  0  0  0
  1  2  1  0
  2  3  1  0
  2  4  1  0
  4  5  1  1
  5  6  1  0
  6  7  1  0
  7  8  1  0
  7  9  1  0
  4 10  1  0
 10 11  1  0
 10 12  2  0
M  ISO  5   1   1   3   3   8   4   9   5  11   2
M  END
>  <symbol>  (130) 
D_Dab

>  <m_abbr>  (130) 
D_Dab

>  <m_name>  (130) 
D-2,4-diaminobutanoic acid

>  <m_type>  (130) 
aa

>  <m_subtype>  (130) 
natural

>  <m_Rgroups>  (130) 
[H],[OH],[H],[H],[H]

>  <m_chem_types>  (130) 
1:backbone_n,2:backbone_c,3:backbone_n_mod,4:amine_primary,5:amine_primary

>  <m_activation_policy>  (130) 
canonical-sites-v1

$$$$

     RDKit          2D

 10 10  0  0  0  0  0  0  0  0999 V2000
    0.4166   -2.3203    0.0000 R   0  0  0  0  0  1  0  0  0  0  0  0
   -0.3975   -1.0604    0.0000 N   0  0  0  0  0  0  0  0  0  0  0  0
   -1.8956   -1.1355    0.0000 C   0  0  0  0  0  0  0  0  0  0  0  0
   -2.7096    0.1244    0.0000 C   0  0  0  0  0  0  0  0  0  0  0  0
   -2.0255    1.4594    0.0000 C   0  0  0  0  0  0  0  0  0  0  0  0
   -0.5274    1.5344    0.0000 C   0  0  0  0  0  0  0  0  0  0  0  0
    0.2866    0.2745    0.0000 C   0  0  0  0  0  0  0  0  0  0  0  0
    1.7848    0.3495    0.0000 C   0  0  0  0  0  0  0  0  0  0  0  0
    2.5988   -0.9104    0.0000 R   0  0  0  0  0  1  0  0  0  0  0  0
    2.4688    1.6844    0.0000 O   0  0  0  0  0  0  0  0  0  0  0  0
  1  2  1  0
  2  3  1  0
  3  4  1  0
  4  5  1  0
  5  6  1  0
  6  7  1  0
  7  8  1  6
  8  9  1  0
  8 10  2  0
  7  2  1  0
M  ISO  2   1   1   9   2
M  END
>  <symbol>  (131) 
D_Pip

>  <m_abbr>  (131) 
D_Pip

>  <m_name>  (131) 
D-Pipecolic acid

>  <m_type>  (131) 
aa

>  <m_subtype>  (131) 
natural

>  <m_Rgroups>  (131) 
[H],[OH]

>  <m_chem_types>  (131) 
1:backbone_n,2:backbone_c

>  <m_activation_policy>  (131) 
canonical-sites-v1

$$$$

     RDKit          2D

 14 15  0  0  0  0  0  0  0  0999 V2000
   -2.3413   -2.2101    0.0000 R   0  0  0  0  0  1  0  0  0  0  0  0
   -1.1930   -1.2450    0.0000 N   0  0  0  0  0  0  0  0  0  0  0  0
    0.2170   -1.7569    0.0000 C   0  0  0  0  0  0  0  0  0  0  0  0
    1.3653   -0.7919    0.0000 C   0  0  0  0  0  0  0  0  0  0  0  0
    2.7752   -1.3038    0.0000 C   0  0  0  0  0  0  0  0  0  0  0  0
    3.9235   -0.3387    0.0000 C   0  0  0  0  0  0  0  0  0  0  0  0
    3.6619    1.1383    0.0000 C   0  0  0  0  0  0  0  0  0  0  0  0
    2.2520    1.6502    0.0000 C   0  0  0  0  0  0  0  0  0  0  0  0
    1.1037    0.6851    0.0000 C   0  0  0  0  0  0  0  0  0  0  0  0
   -0.3063    1.1971    0.0000 C   0  0  0  0  0  0  0  0  0  0  0  0
   -1.4546    0.2320    0.0000 C   0  0  0  0  0  0  0  0  0  0  0  0
   -2.8645    0.7439    0.0000 C   0  0  0  0  0  0  0  0  0  0  0  0
   -3.1261    2.2209    0.0000 R   0  0  0  0  0  1  0  0  0  0  0  0
   -4.0128   -0.2211    0.0000 O   0  0  0  0  0  0  0  0  0  0  0  0
  1  2  1  0
  2  3  1  0
  3  4  1  0
  4  5  2  0
  5  6  1  0
  6  7  2  0
  7  8  1  0
  8  9  2  0
  9 10  1  0
 10 11  1  0
 11 12  1  1
 12 13  1  0
 12 14  2  0
 11  2  1  0
  9  4  1  0
M  ISO  2   1   1  13   2
M  END
>  <symbol>  (132) 
D_Tic

>  <m_abbr>  (132) 
D_Tic

>  <m_name>  (132) 
D-1,2,3,4-tetrahydro-3-isoquinolinecarboxylic acid

>  <m_type>  (132) 
aa

>  <m_subtype>  (132) 
natural

>  <m_Rgroups>  (132) 
[H],[OH]

>  <m_chem_types>  (132) 
1:backbone_n,2:backbone_c

>  <m_activation_policy>  (132) 
canonical-sites-v1

$$$$

     RDKit          2D

 15 14  0  0  0  0  0  0  0  0999 V2000
   -5.3620   -0.2812    0.0000 R   0  0  0  0  0  1  0  0  0  0  0  0
   -4.0255   -0.9622    0.0000 N   0  0  0  0  0  0  0  0  0  0  0  0
   -3.9469   -2.4601    0.0000 R   0  0  0  0  0  1  0  0  0  0  0  0
   -2.7675   -0.1451    0.0000 C   0  0  0  0  0  0  0  0  0  0  0  0
   -1.4309   -0.8261    0.0000 C   0  0  0  0  0  0  0  0  0  0  0  0
   -0.1730   -0.0091    0.0000 C   0  0  0  0  0  0  0  0  0  0  0  0
    1.1636   -0.6900    0.0000 C   0  0  0  0  0  0  0  0  0  0  0  0
    2.4215    0.1270    0.0000 C   0  0  0  0  0  0  0  0  0  0  0  0
    3.7581   -0.5539    0.0000 C   0  0  0  0  0  0  0  0  0  0  0  0
    5.0161    0.2631    0.0000 C   0  0  0  0  0  0  0  0  0  0  0  0
    6.3526   -0.4179    0.0000 C   0  0  0  0  0  0  0  0  0  0  0  0
    7.6106    0.3992    0.0000 C   0  0  0  0  0  0  0  0  0  0  0  0
   -2.8460    1.3528    0.0000 C   0  0  0  0  0  0  0  0  0  0  0  0
   -1.5881    2.1698    0.0000 R   0  0  0  0  0  1  0  0  0  0  0  0
   -4.1826    2.0337    0.0000 O   0  0  0  0  0  0  0  0  0  0  0  0
  1  2  1  0
  2  3  1  0
  2  4  1  0
  4  5  1  6
  5  6  1  0
  6  7  1  0
  7  8  1  0
  8  9  1  0
  9 10  1  0
 10 11  1  0
 11 12  1  0
  4 13  1  0
 13 14  1  0
 13 15  2  0
M  ISO  3   1   1   3   3  14   2
M  END
>  <symbol>  (133) 
Aca

>  <m_abbr>  (133) 
Aca

>  <m_name>  (133) 
2-Aminocapric acid

>  <m_type>  (133) 
aa

>  <m_subtype>  (133) 
natural

>  <m_Rgroups>  (133) 
[H],[OH],[H]

>  <m_chem_types>  (133) 
1:backbone_n,2:backbone_c,3:backbone_n_mod

>  <m_activation_policy>  (133) 
canonical-sites-v1

$$$$

     RDKit          2D

 14 15  0  0  0  0  0  0  0  0999 V2000
   -2.3413   -2.2101    0.0000 R   0  0  0  0  0  1  0  0  0  0  0  0
   -1.1930   -1.2450    0.0000 N   0  0  0  0  0  0  0  0  0  0  0  0
    0.2170   -1.7569    0.0000 C   0  0  0  0  0  0  0  0  0  0  0  0
    1.3653   -0.7919    0.0000 C   0  0  0  0  0  0  0  0  0  0  0  0
    2.7752   -1.3038    0.0000 C   0  0  0  0  0  0  0  0  0  0  0  0
    3.9235   -0.3387    0.0000 C   0  0  0  0  0  0  0  0  0  0  0  0
    3.6619    1.1383    0.0000 C   0  0  0  0  0  0  0  0  0  0  0  0
    2.2520    1.6502    0.0000 C   0  0  0  0  0  0  0  0  0  0  0  0
    1.1037    0.6851    0.0000 C   0  0  0  0  0  0  0  0  0  0  0  0
   -0.3063    1.1971    0.0000 C   0  0  0  0  0  0  0  0  0  0  0  0
   -1.4546    0.2320    0.0000 C   0  0  0  0  0  0  0  0  0  0  0  0
   -2.8645    0.7439    0.0000 C   0  0  0  0  0  0  0  0  0  0  0  0
   -3.1261    2.2209    0.0000 R   0  0  0  0  0  1  0  0  0  0  0  0
   -4.0128   -0.2211    0.0000 O   0  0  0  0  0  0  0  0  0  0  0  0
  1  2  1  0
  2  3  1  0
  3  4  1  0
  4  5  2  0
  5  6  1  0
  6  7  2  0
  7  8  1  0
  8  9  2  0
  9 10  1  0
 10 11  1  0
 11 12  1  6
 12 13  1  0
 12 14  2  0
 11  2  1  0
  9  4  1  0
M  ISO  2   1   1  13   2
M  END
>  <symbol>  (134) 
Tic

>  <m_abbr>  (134) 
Tic

>  <m_name>  (134) 
1,2,3,4-tetrahydro-3-isoquinolinecarboxylic acid

>  <m_type>  (134) 
aa

>  <m_subtype>  (134) 
natural

>  <m_Rgroups>  (134) 
[H],[OH]

>  <m_chem_types>  (134) 
1:backbone_n,2:backbone_c

>  <m_activation_policy>  (134) 
canonical-sites-v1

$$$$

     RDKit          2D

 13 12  0  0  0  0  0  0  0  0999 V2000
   -4.0960   -0.1954    0.0000 R   0  0  0  0  0  1  0  0  0  0  0  0
   -2.7929   -0.9383    0.0000 N   0  0  0  0  0  0  0  0  0  0  0  0
   -2.7847   -2.4383    0.0000 R   0  0  0  0  0  1  0  0  0  0  0  0
   -1.4979   -0.1812    0.0000 C   0  0  0  0  0  0  0  0  0  0  0  0
   -0.1948   -0.9242    0.0000 C   0  0  0  0  0  0  0  0  0  0  0  0
    1.1001   -0.1671    0.0000 C   0  0  0  0  0  0  0  0  0  0  0  0
    2.4032   -0.9100    0.0000 C   0  0  0  0  0  0  0  0  0  0  0  0
    3.6982   -0.1529    0.0000 C   0  0  0  0  0  0  0  0  0  0  0  0
    5.0013   -0.8959    0.0000 R   0  0  0  0  0  1  0  0  0  0  0  0
    3.6900    1.3470    0.0000 O   0  0  0  0  0  0  0  0  0  0  0  0
   -1.5061    1.3187    0.0000 C   0  0  0  0  0  0  0  0  0  0  0  0
   -0.2112    2.0758    0.0000 R   0  0  0  0  0  1  0  0  0  0  0  0
   -2.8092    2.0617    0.0000 O   0  0  0  0  0  0  0  0  0  0  0  0
  1  2  1  0
  2  3  1  0
  2  4  1  0
  4  5  1  6
  5  6  1  0
  6  7  1  0
  7  8  1  0
  8  9  1  0
  8 10  2  0
  4 11  1  0
 11 12  1  0
 11 13  2  0
M  ISO  4   1   1   3   3   9   4  12   2
M  END
>  <symbol>  (135) 
Aad

>  <m_abbr>  (135) 
Aad

>  <m_name>  (135) 
2-Aminoadipic acid

>  <m_type>  (135) 
aa

>  <m_subtype>  (135) 
natural

>  <m_Rgroups>  (135) 
[H],[OH],[H],[OH]

>  <m_chem_types>  (135) 
1:backbone_n,2:backbone_c,3:backbone_n_mod,4:carboxyl

>  <m_activation_policy>  (135) 
canonical-sites-v1

$$$$

     RDKit          2D

 17 16  0  0  0  0  0  0  0  0999 V2000
   -5.2288    0.3974    0.0000 R   0  0  0  0  0  1  0  0  0  0  0  0
   -4.1155   -0.6079    0.0000 N   0  0  0  0  0  0  0  0  0  0  0  0
   -4.4295   -2.0747    0.0000 R   0  0  0  0  0  1  0  0  0  0  0  0
   -2.6883   -0.1464    0.0000 C   0  0  0  0  0  0  0  0  0  0  0  0
   -1.5750   -1.1517    0.0000 C   0  0  0  0  0  0  0  0  0  0  0  0
   -0.1478   -0.6902    0.0000 C   0  0  0  0  0  0  0  0  0  0  0  0
    0.9655   -1.6955    0.0000 C   0  0  0  0  0  0  0  0  0  0  0  0
    2.3928   -1.2341    0.0000 N   0  0  0  0  0  0  0  0  0  0  0  0
    3.5060   -2.2394    0.0000 R   0  0  0  0  0  1  0  0  0  0  0  0
    2.7067    0.2327    0.0000 C   0  0  0  0  0  0  0  0  0  0  0  0
    1.5935    1.2380    0.0000 O   0  0  0  0  0  0  0  0  0  0  0  0
    4.1340    0.6942    0.0000 N   0  0  0  0  0  0  0  0  0  0  0  0
    4.4480    2.1609    0.0000 R   0  0  0  0  0  1  0  0  0  0  0  0
    5.2473   -0.3111    0.0000 R   0  0  0  0  0  1  0  0  0  0  0  0
   -2.3743    1.3204    0.0000 C   0  0  0  0  0  0  0  0  0  0  0  0
   -0.9470    1.7818    0.0000 R   0  0  0  0  0  1  0  0  0  0  0  0
   -3.4876    2.3257    0.0000 O   0  0  0  0  0  0  0  0  0  0  0  0
  1  2  1  0
  2  3  1  0
  2  4  1  0
  4  5  1  6
  5  6  1  0
  6  7  1  0
  7  8  1  0
  8  9  1  0
  8 10  1  0
 10 11  2  0
 10 12  1  0
 12 13  1  0
 12 14  1  0
  4 15  1  0
 15 16  1  0
 15 17  2  0
M  ISO  6   1   1   3   3   9   6  13   4  14   5  16   2
M  END
>  <symbol>  (136) 
Cit

>  <m_abbr>  (136) 
Cit

>  <m_name>  (136) 
Citrullin

>  <m_type>  (136) 
aa

>  <m_subtype>  (136) 
natural

>  <m_Rgroups>  (136) 
[H],[OH],[H],[H],[H],[H]

>  <m_chem_types>  (136) 
1:backbone_n,2:backbone_c,3:backbone_n_mod,4:urea_nh,5:urea_nh,6:urea_nh

>  <m_activation_policy>  (136) 
canonical-sites-v1

$$$$

     RDKit          2D

  8  8  0  0  0  0  0  0  0  0999 V2000
   -1.7473   -1.8123    0.0000 R   0  0  0  0  0  1  0  0  0  0  0  0
   -1.3130   -0.3765    0.0000 N   0  0  0  0  0  0  0  0  0  0  0  0
   -2.0211    0.9458    0.0000 C   0  0  0  0  0  0  0  0  0  0  0  0
   -0.6988    1.6539    0.0000 C   0  0  0  0  0  0  0  0  0  0  0  0
    0.0093    0.3316    0.0000 C   0  0  0  0  0  0  0  0  0  0  0  0
    1.4451   -0.1027    0.0000 C   0  0  0  0  0  0  0  0  0  0  0  0
    1.7868   -1.5633    0.0000 R   0  0  0  0  0  1  0  0  0  0  0  0
    2.5391    0.9235    0.0000 O   0  0  0  0  0  0  0  0  0  0  0  0
  1  2  1  0
  2  3  1  0
  3  4  1  0
  4  5  1  0
  5  6  1  1
  6  7  1  0
  6  8  2  0
  5  2  1  0
M  ISO  2   1   1   7   2
M  END
>  <symbol>  (137) 
Aze

>  <m_abbr>  (137) 
Aze

>  <m_name>  (137) 
2-Carboxyazetidine

>  <m_type>  (137) 
aa

>  <m_subtype>  (137) 
natural

>  <m_Rgroups>  (137) 
[H],[OH]

>  <m_chem_types>  (137) 
1:backbone_n,2:backbone_c

>  <m_activation_policy>  (137) 
canonical-sites-v1

$$$$

     RDKit          2D

 11 11  0  0  0  0  0  0  0  0999 V2000
    0.5721   -2.4709    0.0000 R   0  0  0  0  0  1  0  0  0  0  0  0
    0.8840   -1.0037    0.0000 N   0  0  0  0  0  0  0  0  0  0  0  0
    2.3106   -0.5402    0.0000 R   0  0  0  0  0  1  0  0  0  0  0  0
   -0.2307   -0.0000    0.0000 C   0  0  0  0  0  0  0  0  0  0  0  0
    0.8840    1.0037    0.0000 C   0  0  0  0  0  0  0  0  0  0  0  0
    2.3106    0.5402    0.0000 R   0  0  0  0  0  1  0  0  0  0  0  0
    0.5721    2.4709    0.0000 O   0  0  0  0  0  0  0  0  0  0  0  0
   -1.1124    1.2135    0.0000 C   0  0  0  0  0  0  0  0  0  0  0  0
   -2.5390    0.7500    0.0000 C   0  0  0  0  0  0  0  0  0  0  0  0
   -2.5390   -0.7500    0.0000 C   0  0  0  0  0  0  0  0  0  0  0  0
   -1.1124   -1.2135    0.0000 C   0  0  0  0  0  0  0  0  0  0  0  0
  1  2  1  0
  2  3  1  0
  2  4  1  0
  4  5  1  0
  5  6  1  0
  5  7  2  0
  4  8  1  0
  8  9  1  0
  9 10  1  0
 10 11  1  0
 11  4  1  0
M  ISO  3   1   1   3   3   6   2
M  END
>  <symbol>  (138) 
Ac5c

>  <m_abbr>  (138) 
Ac5c

>  <m_name>  (138) 
1-Amino-1-carboxycyclopentane

>  <m_type>  (138) 
aa

>  <m_subtype>  (138) 
natural

>  <m_Rgroups>  (138) 
[H],[OH],[H]

>  <m_chem_types>  (138) 
1:backbone_n,2:backbone_c,3:backbone_n_mod

>  <m_activation_policy>  (138) 
canonical-sites-v1

$$$$

     RDKit          2D

 14 14  0  0  0  0  0  0  0  0999 V2000
   -2.3413    2.2101    0.0000 R   0  0  0  0  0  1  0  0  0  0  0  0
   -1.1930    1.2450    0.0000 N   0  0  0  0  0  0  0  0  0  0  0  0
    0.2170    1.7569    0.0000 R   0  0  0  0  0  1  0  0  0  0  0  0
   -1.4546   -0.2320    0.0000 C   0  0  0  0  0  0  0  0  0  0  0  0
   -0.3063   -1.1971    0.0000 C   0  0  0  0  0  0  0  0  0  0  0  0
    1.1037   -0.6851    0.0000 C   0  0  0  0  0  0  0  0  0  0  0  0
    1.3653    0.7919    0.0000 C   0  0  0  0  0  0  0  0  0  0  0  0
    2.7752    1.3038    0.0000 C   0  0  0  0  0  0  0  0  0  0  0  0
    3.9235    0.3387    0.0000 C   0  0  0  0  0  0  0  0  0  0  0  0
    3.6619   -1.1383    0.0000 C   0  0  0  0  0  0  0  0  0  0  0  0
    2.2520   -1.6502    0.0000 N   0  0  0  0  0  0  0  0  0  0  0  0
   -2.8645   -0.7439    0.0000 C   0  0  0  0  0  0  0  0  0  0  0  0
   -4.0128    0.2211    0.0000 R   0  0  0  0  0  1  0  0  0  0  0  0
   -3.1261   -2.2209    0.0000 O   0  0  0  0  0  0  0  0  0  0  0  0
  1  2  1  0
  2  3  1  0
  2  4  1  0
  4  5  1  6
  5  6  1  0
  6  7  2  0
  7  8  1  0
  8  9  2  0
  9 10  1  0
 10 11  2  0
  4 12  1  0
 12 13  1  0
 12 14  2  0
 11  6  1  0
M  ISO  3   1   1   3   3  13   2
M  END
>  <symbol>  (139) 
D_2Pal

>  <m_abbr>  (139) 
D_2Pal

>  <m_name>  (139) 
D-3-(2-Pyridyl)-alanine

>  <m_type>  (139) 
aa

>  <m_subtype>  (139) 
natural

>  <m_Rgroups>  (139) 
[H],[OH],[H]

>  <m_chem_types>  (139) 
1:backbone_n,2:backbone_c,3:backbone_n_mod

>  <m_activation_policy>  (139) 
canonical-sites-v1

$$$$

     RDKit          2D

  9  8  0  0  0  0  0  0  0  0999 V2000
   -2.2500    1.0104    0.0000 R   0  0  0  0  0  1  0  0  0  0  0  0
   -1.5000   -0.2887    0.0000 N   0  0  0  0  0  0  0  0  0  0  0  0
   -2.2500   -1.5877    0.0000 R   0  0  0  0  0  1  0  0  0  0  0  0
   -0.0000   -0.2887    0.0000 C   0  0  0  0  0  0  0  0  0  0  0  0
    0.7500   -1.5877    0.0000 C   0  0  0  0  0  0  0  0  0  0  0  0
    2.2500   -1.5877    0.0000 C   0  0  0  0  0  0  0  0  0  0  0  0
    0.7500    1.0104    0.0000 C   0  0  0  0  0  0  0  0  0  0  0  0
    2.2500    1.0104    0.0000 R   0  0  0  0  0  1  0  0  0  0  0  0
   -0.0000    2.3094    0.0000 O   0  0  0  0  0  0  0  0  0  0  0  0
  1  2  1  0
  2  3  1  0
  2  4  1  0
  4  5  1  1
  5  6  1  0
  4  7  1  0
  7  8  1  0
  7  9  2  0
M  ISO  3   1   1   3   3   8   2
M  END
>  <symbol>  (140) 
D_Abu

>  <m_abbr>  (140) 
D_Abu

>  <m_name>  (140) 
D-2-aminobutanoic acid

>  <m_type>  (140) 
aa

>  <m_subtype>  (140) 
natural

>  <m_Rgroups>  (140) 
[H],[OH],[H]

>  <m_chem_types>  (140) 
1:backbone_n,2:backbone_c,3:backbone_n_mod

>  <m_activation_policy>  (140) 
canonical-sites-v1

$$$$

     RDKit          2D

 11 10  0  0  0  0  0  0  0  0999 V2000
   -3.0813    0.0866    0.0000 R   0  0  0  0  0  1  0  0  0  0  0  0
   -1.8784   -0.8095    0.0000 N   0  0  0  0  0  0  0  0  0  0  0  0
   -2.0531   -2.2993    0.0000 R   0  0  0  0  0  1  0  0  0  0  0  0
   -0.5009   -0.2159    0.0000 C   0  0  0  0  0  0  0  0  0  0  0  0
    0.7020   -1.1120    0.0000 C   0  0  0  0  0  0  0  0  0  0  0  0
    2.0795   -0.5184    0.0000 N   0  0  0  0  0  0  0  0  0  0  0  0
    3.2824   -1.4145    0.0000 R   0  0  0  0  0  1  0  0  0  0  0  0
    2.2541    0.9714    0.0000 R   0  0  0  0  0  1  0  0  0  0  0  0
   -0.3263    1.2739    0.0000 C   0  0  0  0  0  0  0  0  0  0  0  0
    1.0513    1.8676    0.0000 R   0  0  0  0  0  1  0  0  0  0  0  0
   -1.5291    2.1701    0.0000 O   0  0  0  0  0  0  0  0  0  0  0  0
  1  2  1  0
  2  3  1  0
  2  4  1  0
  4  5  1  1
  5  6  1  0
  6  7  1  0
  6  8  1  0
  4  9  1  0
  9 10  1  0
  9 11  2  0
M  ISO  5   1   1   3   3   7   4   8   5  10   2
M  END
>  <symbol>  (141) 
D_Dap

>  <m_abbr>  (141) 
D_Dap

>  <m_name>  (141) 
D-2,3-diaminopropanoic acid

>  <m_type>  (141) 
aa

>  <m_subtype>  (141) 
natural

>  <m_Rgroups>  (141) 
[H],[OH],[H],[H],[H]

>  <m_chem_types>  (141) 
1:backbone_n,2:backbone_c,3:backbone_n_mod,4:amine_primary,5:amine_primary

>  <m_activation_policy>  (141) 
canonical-sites-v1

$$$$

     RDKit          2D

 15 14  0  0  0  0  0  0  0  0999 V2000
   -5.1929   -0.2083    0.0000 R   0  0  0  0  0  1  0  0  0  0  0  0
   -3.8786   -0.9310    0.0000 N   0  0  0  0  0  0  0  0  0  0  0  0
   -3.8473   -2.4307    0.0000 R   0  0  0  0  0  1  0  0  0  0  0  0
   -2.5954   -0.1541    0.0000 C   0  0  0  0  0  0  0  0  0  0  0  0
   -1.2810   -0.8769    0.0000 C   0  0  0  0  0  0  0  0  0  0  0  0
    0.0021   -0.1000    0.0000 C   0  0  0  0  0  0  0  0  0  0  0  0
    1.3165   -0.8227    0.0000 C   0  0  0  0  0  0  0  0  0  0  0  0
    2.5996   -0.0458    0.0000 C   0  0  0  0  0  0  0  0  0  0  0  0
    3.9140   -0.7686    0.0000 C   0  0  0  0  0  0  0  0  0  0  0  0
    5.1971    0.0083    0.0000 C   0  0  0  0  0  0  0  0  0  0  0  0
    6.5115   -0.7145    0.0000 R   0  0  0  0  0  1  0  0  0  0  0  0
    5.1659    1.5080    0.0000 O   0  0  0  0  0  0  0  0  0  0  0  0
   -2.6267    1.3456    0.0000 C   0  0  0  0  0  0  0  0  0  0  0  0
   -1.3436    2.1225    0.0000 R   0  0  0  0  0  1  0  0  0  0  0  0
   -3.9411    2.0683    0.0000 O   0  0  0  0  0  0  0  0  0  0  0  0
  1  2  1  0
  2  3  1  0
  2  4  1  0
  4  5  1  6
  5  6  1  0
  6  7  1  0
  7  8  1  0
  8  9  1  0
  9 10  1  0
 10 11  1  0
 10 12  2  0
  4 13  1  0
 13 14  1  0
 13 15  2  0
M  ISO  4   1   1   3   3  11   4  14   2
M  END
>  <symbol>  (142) 
Asu

>  <m_abbr>  (142) 
Asu

>  <m_name>  (142) 
2-Aminosuberic acid

>  <m_type>  (142) 
aa

>  <m_subtype>  (142) 
natural

>  <m_Rgroups>  (142) 
[H],[OH],[H],[OH]

>  <m_chem_types>  (142) 
1:backbone_n,2:backbone_c,3:backbone_n_mod,4:carboxyl

>  <m_activation_policy>  (142) 
canonical-sites-v1

$$$$

     RDKit          2D

 11 11  0  0  0  0  0  0  0  0999 V2000
   -4.2089    1.1758    0.0000 R   0  0  0  0  0  1  0  0  0  0  0  0
   -3.1764    0.0877    0.0000 C   0  0  0  0  0  0  0  0  0  0  0  0
   -3.6025   -1.3505    0.0000 O   0  0  0  0  0  0  0  0  0  0  0  0
   -1.7178    0.4378    0.0000 O   0  0  0  0  0  0  0  0  0  0  0  0
   -0.6853   -0.6503    0.0000 C   0  0  0  0  0  0  0  0  0  0  0  0
    0.7732   -0.3002    0.0000 C   0  0  0  0  0  0  0  0  0  0  0  0
    1.1993    1.1380    0.0000 C   0  0  0  0  0  0  0  0  0  0  0  0
    2.6579    1.4881    0.0000 C   0  0  0  0  0  0  0  0  0  0  0  0
    3.6904    0.4000    0.0000 C   0  0  0  0  0  0  0  0  0  0  0  0
    3.2643   -1.0382    0.0000 C   0  0  0  0  0  0  0  0  0  0  0  0
    1.8057   -1.3883    0.0000 C   0  0  0  0  0  0  0  0  0  0  0  0
  1  2  1  0
  2  3  2  0
  2  4  1  0
  4  5  1  0
  5  6  1  0
  6  7  2  0
  7  8  1  0
  8  9  2  0
  9 10  1  0
 10 11  2  0
 11  6  1  0
M  ISO  1   1   2
M  END
>  <symbol>  (143) 
Cbz

>  <m_abbr>  (143) 
Cbz

>  <m_name>  (143) 
Carboxybenzyl

>  <m_type>  (143) 
cap

>  <m_subtype>  (143) 
cap

>  <m_Rgroups>  (143) 
None,[OH]

>  <m_chem_types>  (143) 
2:backbone_c

>  <m_activation_policy>  (143) 
canonical-sites-v1

$$$$

     RDKit          2D

  3  2  0  0  0  0  0  0  0  0999 V2000
   -1.2990   -0.2500    0.0000 R   0  0  0  0  0  1  0  0  0  0  0  0
    0.0000    0.5000    0.0000 C   0  0  0  0  0  0  0  0  0  0  0  0
    1.2990   -0.2500    0.0000 C   0  0  0  0  0  0  0  0  0  0  0  0
  1  2  1  0
  2  3  1  0
M  ISO  1   1   2
M  END
>  <symbol>  (144) 
_Et

>  <m_abbr>  (144) 
_Et

>  <m_name>  (144) 
C-Terminal ethyl

>  <m_type>  (144) 
cap

>  <m_subtype>  (144) 
cap

>  <m_Rgroups>  (144) 
None,[Br]

>  <m_chem_types>  (144) 
2:alkyl_halide_c

>  <m_activation_policy>  (144) 
canonical-sites-v1

$$$$

     RDKit          2D

  4  3  0  0  0  0  0  0  0  0999 V2000
   -1.9796   -0.1365    0.0000 R   0  0  0  0  0  1  0  0  0  0  0  0
   -0.5994    0.4508    0.0000 N   0  0  0  0  0  0  0  0  0  0  0  0
    0.5994   -0.4508    0.0000 C   0  0  0  0  0  0  0  0  0  0  0  0
    1.9796    0.1365    0.0000 C   0  0  0  0  0  0  0  0  0  0  0  0
  1  2  1  0
  2  3  1  0
  3  4  1  0
M  ISO  1   1   1
M  END
>  <symbol>  (145) 
NHEt

>  <m_abbr>  (145) 
NHEt

>  <m_name>  (145) 
Ethanamine

>  <m_type>  (145) 
cap

>  <m_subtype>  (145) 
cap

>  <m_Rgroups>  (145) 
[H]

>  <m_chem_types>  (145) 
1:backbone_n

>  <m_activation_policy>  (145) 
canonical-sites-v1

$$$$

     RDKit          2D

  4  3  0  0  0  0  0  0  0  0999 V2000
   -1.9796   -0.1365    0.0000 R   0  0  0  0  0  1  0  0  0  0  0  0
   -0.5994    0.4508    0.0000 O   0  0  0  0  0  0  0  0  0  0  0  0
    0.5994   -0.4508    0.0000 C   0  0  0  0  0  0  0  0  0  0  0  0
    1.9796    0.1365    0.0000 C   0  0  0  0  0  0  0  0  0  0  0  0
  1  2  1  0
  2  3  1  0
  3  4  1  0
M  ISO  1   1   1
M  END
>  <symbol>  (146) 
OEt

>  <m_abbr>  (146) 
OEt

>  <m_name>  (146) 
Ethanol

>  <m_type>  (146) 
cap

>  <m_subtype>  (146) 
cap

>  <m_Rgroups>  (146) 
[H]

>  <m_chem_types>  (146) 
1:backbone_o

>  <m_activation_policy>  (146) 
canonical-sites-v1

$$$$

     RDKit          2D

  3  2  0  0  0  0  0  0  0  0999 V2000
   -1.2990   -0.2500    0.0000 R   0  0  0  0  0  1  0  0  0  0  0  0
    0.0000    0.5000    0.0000 O   0  0  0  0  0  0  0  0  0  0  0  0
    1.2990   -0.2500    0.0000 C   0  0  0  0  0  0  0  0  0  0  0  0
  1  2  1  0
  2  3  1  0
M  ISO  1   1   1
M  END
>  <symbol>  (147) 
_OMe

>  <m_abbr>  (147) 
_OMe

>  <m_name>  (147) 
C-Terminal methanol

>  <m_type>  (147) 
cap

>  <m_subtype>  (147) 
cap

>  <m_Rgroups>  (147) 
[H]

>  <m_chem_types>  (147) 
1:backbone_o

>  <m_activation_policy>  (147) 
canonical-sites-v1

$$$$

     RDKit          2D

  6  5  0  0  0  0  0  0  0  0999 V2000
   -2.1651    0.0000    0.0000 R   0  0  0  0  0  1  0  0  0  0  0  0
   -0.8660    0.7500    0.0000 O   0  0  0  0  0  0  0  0  0  0  0  0
    0.4330    0.0000    0.0000 C   0  0  0  0  0  0  0  0  0  0  0  0
    1.1830    1.2990    0.0000 C   0  0  0  0  0  0  0  0  0  0  0  0
   -0.3170   -1.2990    0.0000 C   0  0  0  0  0  0  0  0  0  0  0  0
    1.7321   -0.7500    0.0000 C   0  0  0  0  0  0  0  0  0  0  0  0
  1  2  1  0
  2  3  1  0
  3  4  1  0
  3  5  1  0
  3  6  1  0
M  ISO  1   1   1
M  END
>  <symbol>  (148) 
OtBu

>  <m_abbr>  (148) 
OtBu

>  <m_name>  (148) 
O-tert-Butyl

>  <m_type>  (148) 
cap

>  <m_subtype>  (148) 
cap

>  <m_Rgroups>  (148) 
[H]

>  <m_chem_types>  (148) 
1:backbone_o

>  <m_activation_policy>  (148) 
canonical-sites-v1

$$$$

     RDKit          2D

 11 11  0  0  0  0  0  0  0  0999 V2000
    3.5455   -0.0000    0.0000 R   0  0  0  0  0  1  0  0  0  0  0  0
    2.0455    0.0000    0.0000 S   0  0  0  0  0  0  0  0  0  0  0  0
    2.0455    1.5000    0.0000 O   0  0  0  0  0  0  0  0  0  0  0  0
    2.0455   -1.5000    0.0000 O   0  0  0  0  0  0  0  0  0  0  0  0
    0.5455   -0.0000    0.0000 C   0  0  0  0  0  0  0  0  0  0  0  0
   -0.2045   -1.2990    0.0000 C   0  0  0  0  0  0  0  0  0  0  0  0
   -1.7045   -1.2990    0.0000 C   0  0  0  0  0  0  0  0  0  0  0  0
   -2.4545    0.0000    0.0000 C   0  0  0  0  0  0  0  0  0  0  0  0
   -3.9545    0.0000    0.0000 C   0  0  0  0  0  0  0  0  0  0  0  0
   -1.7045    1.2990    0.0000 C   0  0  0  0  0  0  0  0  0  0  0  0
   -0.2045    1.2990    0.0000 C   0  0  0  0  0  0  0  0  0  0  0  0
  1  2  1  0
  2  3  2  0
  2  4  2  0
  2  5  1  0
  5  6  1  0
  6  7  2  0
  7  8  1  0
  8  9  1  0
  8 10  2  0
 10 11  1  0
 11  5  2  0
M  ISO  1   1   2
M  END
>  <symbol>  (149) 
Tos

>  <m_abbr>  (149) 
Tos

>  <m_name>  (149) 
Tosyl

>  <m_type>  (149) 
cap

>  <m_subtype>  (149) 
cap

>  <m_Rgroups>  (149) 
None,[OH]

>  <m_chem_types>  (149) 
2:sulfonyl_s

>  <m_activation_policy>  (149) 
canonical-sites-v1

$$$$

     RDKit          2D

  9  9  0  0  0  0  0  0  0  0999 V2000
    0.5115   -2.3139    0.0000 R   0  0  0  0  0  1  0  0  0  0  0  0
    0.8624   -0.8555    0.0000 N   0  0  0  0  0  0  0  0  0  0  0  0
    2.2485   -0.2821    0.0000 C   0  0  0  0  0  0  0  0  0  0  0  0
    2.1314    1.2133    0.0000 S   0  0  0  0  0  0  0  0  0  0  0  0
    0.6730    1.5641    0.0000 C   0  0  0  0  0  0  0  0  0  0  0  0
   -0.1113    0.2855    0.0000 C   0  0  0  0  0  0  0  0  0  0  0  0
   -1.6067    0.1685    0.0000 C   0  0  0  0  0  0  0  0  0  0  0  0
   -2.4558    1.4051    0.0000 R   0  0  0  0  0  1  0  0  0  0  0  0
   -2.2531   -1.1851    0.0000 O   0  0  0  0  0  0  0  0  0  0  0  0
  1  2  1  0
  2  3  1  0
  3  4  1  0
  4  5  1  0
  5  6  1  0
  6  7  1  1
  7  8  1  0
  7  9  2  0
  6  2  1  0
M  ISO  2   1   1   8   2
M  END
>  <symbol>  (150) 
D_Thz

>  <m_abbr>  (150) 
D_Thz

>  <m_name>  (150) 
(4S)-1,3-thiazolidine-4-carboxylic acid

>  <m_type>  (150) 
aa

>  <m_subtype>  (150) 
natural

>  <m_Rgroups>  (150) 
[H],[OH]

>  <m_chem_types>  (150) 
1:backbone_n,2:backbone_c

>  <m_activation_policy>  (150) 
canonical-sites-v1

$$$$

     RDKit          2D

  7  6  0  0  0  0  0  0  0  0999 V2000
    1.5086    1.6381    0.0000 R   0  0  0  0  0  1  0  0  0  0  0  0
    1.1803    0.1745    0.0000 C   0  0  0  0  0  0  0  0  0  0  0  0
    2.2837   -0.8417    0.0000 O   0  0  0  0  0  0  0  0  0  0  0  0
   -0.2514   -0.2730    0.0000 C   0  0  0  0  0  0  0  0  0  0  0  0
   -0.5797   -1.7367    0.0000 C   0  0  0  0  0  0  0  0  0  0  0  0
   -1.3548    0.7431    0.0000 S   0  0  0  0  0  0  0  0  0  0  0  0
   -2.7865    0.2956    0.0000 R   0  0  0  0  0  1  0  0  0  0  0  0
  1  2  1  0
  2  3  2  0
  2  4  1  0
  4  5  1  6
  4  6  1  0
  6  7  1  0
M  ISO  2   1   2   7   4
M  END
>  <symbol>  (151) 
Mpa

>  <m_abbr>  (151) 
Mpa

>  <m_name>  (151) 
(S)-2-Mercaptopropanoic acid

>  <m_type>  (151) 
cap

>  <m_subtype>  (151) 
cap

>  <m_Rgroups>  (151) 
None,[OH],None,[H]

>  <m_chem_types>  (151) 
2:backbone_c,4:thiol

>  <m_activation_policy>  (151) 
canonical-sites-v1

$$$$

     RDKit          2D

  6  5  0  0  0  0  0  0  0  0999 V2000
    2.2689    0.9563    0.0000 R   0  0  0  0  0  1  0  0  0  0  0  0
    1.0893    0.0297    0.0000 C   0  0  0  0  0  0  0  0  0  0  0  0
    1.3020   -1.4551    0.0000 O   0  0  0  0  0  0  0  0  0  0  0  0
   -0.3029    0.5880    0.0000 C   0  0  0  0  0  0  0  0  0  0  0  0
   -1.4825   -0.3386    0.0000 C   0  0  0  0  0  0  0  0  0  0  0  0
   -2.8748    0.2197    0.0000 C   0  0  0  0  0  0  0  0  0  0  0  0
  1  2  1  0
  2  3  2  0
  2  4  1  0
  4  5  1  0
  5  6  1  0
M  ISO  1   1   2
M  END
>  <symbol>  (152) 
Bua

>  <m_abbr>  (152) 
Bua

>  <m_name>  (152) 
Butanoic acid

>  <m_type>  (152) 
cap

>  <m_subtype>  (152) 
cap

>  <m_Rgroups>  (152) 
None,[OH]

>  <m_chem_types>  (152) 
2:backbone_c

>  <m_activation_policy>  (152) 
canonical-sites-v1

$$$$

     RDKit          2D

  6  5  0  0  0  0  0  0  0  0999 V2000
    2.2689    0.9563    0.0000 R   0  0  0  0  0  1  0  0  0  0  0  0
    1.0893    0.0297    0.0000 C   0  0  0  0  0  0  0  0  0  0  0  0
    1.3020   -1.4551    0.0000 O   0  0  0  0  0  0  0  0  0  0  0  0
   -0.3029    0.5880    0.0000 C   0  0  0  0  0  0  0  0  0  0  0  0
   -1.4825   -0.3386    0.0000 O   0  0  0  0  0  0  0  0  0  0  0  0
   -2.8748    0.2197    0.0000 R   0  0  0  0  0  1  0  0  0  0  0  0
  1  2  1  0
  2  3  2  0
  2  4  1  0
  4  5  1  0
  5  6  1  0
M  ISO  2   1   2   6   4
M  END
>  <symbol>  (153) 
Glc

>  <m_abbr>  (153) 
Glc

>  <m_name>  (153) 
Glycolic acid

>  <m_type>  (153) 
cap

>  <m_subtype>  (153) 
cap

>  <m_Rgroups>  (153) 
None,[OH],None,[H]

>  <m_chem_types>  (153) 
2:backbone_c,4:hydroxyl

>  <m_activation_policy>  (153) 
canonical-sites-v1

$$$$

     RDKit          2D

  7  6  0  0  0  0  0  0  0  0999 V2000
    2.9274    0.8124    0.0000 R   0  0  0  0  0  1  0  0  0  0  0  0
    1.6736   -0.0110    0.0000 C   0  0  0  0  0  0  0  0  0  0  0  0
    1.7598   -1.5085    0.0000 O   0  0  0  0  0  0  0  0  0  0  0  0
    0.3336    0.6631    0.0000 C   0  0  0  0  0  0  0  0  0  0  0  0
   -0.9202   -0.1603    0.0000 C   0  0  0  0  0  0  0  0  0  0  0  0
   -2.2602    0.5139    0.0000 S   0  0  0  0  0  0  0  0  0  0  0  0
   -3.5140   -0.3095    0.0000 R   0  0  0  0  0  1  0  0  0  0  0  0
  1  2  1  0
  2  3  2  0
  2  4  1  0
  4  5  1  0
  5  6  1  0
  6  7  1  0
M  ISO  2   1   2   7   4
M  END
>  <symbol>  (154) 
deamino_Cys

>  <m_abbr>  (154) 
deamino_Cys

>  <m_name>  (154) 
Deamino-Cysteine

>  <m_type>  (154) 
cap

>  <m_subtype>  (154) 
cap

>  <m_Rgroups>  (154) 
None,[OH],None,[H]

>  <m_chem_types>  (154) 
2:backbone_c,4:thiol

>  <m_activation_policy>  (154) 
canonical-sites-v1

$$$$

     RDKit          2D

  9  8  0  0  0  0  0  0  0  0999 V2000
   -3.8971    0.7500    0.0000 R   0  0  0  0  0  1  0  0  0  0  0  0
   -2.5981    0.0000    0.0000 N   0  0  0  0  0  0  0  0  0  0  0  0
   -2.5981   -1.5000    0.0000 R   0  0  0  0  0  1  0  0  0  0  0  0
   -1.2990    0.7500    0.0000 C   0  0  0  0  0  0  0  0  0  0  0  0
    0.0000    0.0000    0.0000 C   0  0  0  0  0  0  0  0  0  0  0  0
    1.2990    0.7500    0.0000 C   0  0  0  0  0  0  0  0  0  0  0  0
    2.5981    0.0000    0.0000 C   0  0  0  0  0  0  0  0  0  0  0  0
    3.8971    0.7500    0.0000 R   0  0  0  0  0  1  0  0  0  0  0  0
    2.5981   -1.5000    0.0000 O   0  0  0  0  0  0  0  0  0  0  0  0
  1  2  1  0
  2  3  1  0
  2  4  1  0
  4  5  1  0
  5  6  1  0
  6  7  1  0
  7  8  1  0
  7  9  2  0
M  ISO  3   1   1   3   3   8   2
M  END
>  <symbol>  (155) 
deamino_Dab

>  <m_abbr>  (155) 
deamino_Dab

>  <m_name>  (155) 
4-aminobutanoic acid

>  <m_type>  (155) 
aa

>  <m_subtype>  (155) 
cap

>  <m_Rgroups>  (155) 
[H],[OH],[H]

>  <m_chem_types>  (155) 
1:backbone_n,2:backbone_c,3:backbone_n_mod

>  <m_activation_policy>  (155) 
canonical-sites-v1

$$$$

     RDKit          2D

  6  5  0  0  0  0  0  0  0  0999 V2000
   -2.4816   -0.5285    0.0000 R   0  0  0  0  0  1  0  0  0  0  0  0
   -1.0893    0.0297    0.0000 C   0  0  0  0  0  0  0  0  0  0  0  0
   -0.8767    1.5146    0.0000 O   0  0  0  0  0  0  0  0  0  0  0  0
    0.0903   -0.8969    0.0000 C   0  0  0  0  0  0  0  0  0  0  0  0
    1.4825   -0.3386    0.0000 C   0  0  0  0  0  0  0  0  0  0  0  0
    2.8748    0.2197    0.0000 N   0  0  0  0  0  0  0  0  0  0  0  0
  1  2  1  0
  2  3  2  0
  2  4  1  0
  4  5  1  0
  5  6  3  0
M  ISO  1   1   2
M  END
>  <symbol>  (156) 
deamino_Gly_CN

>  <m_abbr>  (156) 
deamino_Gly_CN

>  <m_name>  (156) 
2-cyanoacetic acid

>  <m_type>  (156) 
cap

>  <m_subtype>  (156) 
cap

>  <m_Rgroups>  (156) 
None,[OH]

>  <m_chem_types>  (156) 
2:backbone_c

>  <m_activation_policy>  (156) 
canonical-sites-v1

$$$$

     RDKit          2D

  9  9  0  0  0  0  0  0  0  0999 V2000
   -3.4951   -0.5186    0.0000 R   0  0  0  0  0  1  0  0  0  0  0  0
   -2.0876    0.0000    0.0000 C   0  0  0  0  0  0  0  0  0  0  0  0
   -1.8329    1.4782    0.0000 O   0  0  0  0  0  0  0  0  0  0  0  0
   -0.9347   -0.9597    0.0000 C   0  0  0  0  0  0  0  0  0  0  0  0
    0.4728   -0.4411    0.0000 C   0  0  0  0  0  0  0  0  0  0  0  0
    1.7196   -1.2750    0.0000 C   0  0  0  0  0  0  0  0  0  0  0  0
    2.8980   -0.3469    0.0000 C   0  0  0  0  0  0  0  0  0  0  0  0
    2.3794    1.0606    0.0000 C   0  0  0  0  0  0  0  0  0  0  0  0
    0.8806    1.0024    0.0000 C   0  0  0  0  0  0  0  0  0  0  0  0
  1  2  1  0
  2  3  2  0
  2  4  1  0
  4  5  1  0
  5  6  1  0
  6  7  1  0
  7  8  1  0
  8  9  1  0
  9  5  1  0
M  ISO  1   1   2
M  END
>  <symbol>  (157) 
deamino_Gly_cPent

>  <m_abbr>  (157) 
deamino_Gly_cPent

>  <m_name>  (157) 
2-cyclopentylacetic acid

>  <m_type>  (157) 
cap

>  <m_subtype>  (157) 
cap

>  <m_Rgroups>  (157) 
None,[OH]

>  <m_chem_types>  (157) 
2:backbone_c

>  <m_activation_policy>  (157) 
canonical-sites-v1

$$$$

     RDKit          2D

  6  5  0  0  0  0  0  0  0  0999 V2000
    2.2689    0.9563    0.0000 R   0  0  0  0  0  1  0  0  0  0  0  0
    1.0893    0.0297    0.0000 C   0  0  0  0  0  0  0  0  0  0  0  0
    1.3020   -1.4551    0.0000 O   0  0  0  0  0  0  0  0  0  0  0  0
   -0.3029    0.5880    0.0000 C   0  0  0  0  0  0  0  0  0  0  0  0
   -1.4825   -0.3386    0.0000 O   0  0  0  0  0  0  0  0  0  0  0  0
   -2.8748    0.2197    0.0000 R   0  0  0  0  0  1  0  0  0  0  0  0
  1  2  1  0
  2  3  2  0
  2  4  1  0
  4  5  1  0
  5  6  1  0
M  ISO  2   1   2   6   4
M  END
>  <symbol>  (158) 
deamino_Gly_OH

>  <m_abbr>  (158) 
deamino_Gly_OH

>  <m_name>  (158) 
2-hydroxyacetic acid

>  <m_type>  (158) 
cap

>  <m_subtype>  (158) 
cap

>  <m_Rgroups>  (158) 
None,[OH],None,[H]

>  <m_chem_types>  (158) 
2:backbone_c,4:hydroxyl

>  <m_activation_policy>  (158) 
canonical-sites-v1

$$$$

     RDKit          2D

  9  9  0  0  0  0  0  0  0  0999 V2000
   -3.4951   -0.5186    0.0000 R   0  0  0  0  0  1  0  0  0  0  0  0
   -2.0876    0.0000    0.0000 C   0  0  0  0  0  0  0  0  0  0  0  0
   -1.8329    1.4782    0.0000 O   0  0  0  0  0  0  0  0  0  0  0  0
   -0.9347   -0.9597    0.0000 C   0  0  0  0  0  0  0  0  0  0  0  0
    0.4728   -0.4411    0.0000 C   0  0  0  0  0  0  0  0  0  0  0  0
    1.7196   -1.2750    0.0000 C   0  0  0  0  0  0  0  0  0  0  0  0
    2.8980   -0.3469    0.0000 C   0  0  0  0  0  0  0  0  0  0  0  0
    2.3794    1.0606    0.0000 C   0  0  0  0  0  0  0  0  0  0  0  0
    0.8806    1.0024    0.0000 S   0  0  0  0  0  0  0  0  0  0  0  0
  1  2  1  0
  2  3  2  0
  2  4  1  0
  4  5  1  0
  5  6  2  0
  6  7  1  0
  7  8  2  0
  8  9  1  0
  9  5  1  0
M  ISO  1   1   2
M  END
>  <symbol>  (159) 
deamino_Gly_thien2yl

>  <m_abbr>  (159) 
deamino_Gly_thien2yl

>  <m_name>  (159) 
2-(thiophen-2-yl)acetic acid

>  <m_type>  (159) 
cap

>  <m_subtype>  (159) 
cap

>  <m_Rgroups>  (159) 
None,[OH]

>  <m_chem_types>  (159) 
2:backbone_c

>  <m_activation_policy>  (159) 
canonical-sites-v1

$$$$

     RDKit          2D

  6  5  0  0  0  0  0  0  0  0999 V2000
    2.2689    0.9563    0.0000 R   0  0  0  0  0  1  0  0  0  0  0  0
    1.0893    0.0297    0.0000 C   0  0  0  0  0  0  0  0  0  0  0  0
    1.3020   -1.4551    0.0000 O   0  0  0  0  0  0  0  0  0  0  0  0
   -0.3029    0.5880    0.0000 C   0  0  0  0  0  0  0  0  0  0  0  0
   -1.4825   -0.3386    0.0000 S   0  0  0  0  0  0  0  0  0  0  0  0
   -2.8748    0.2197    0.0000 R   0  0  0  0  0  1  0  0  0  0  0  0
  1  2  1  0
  2  3  2  0
  2  4  1  0
  4  5  1  0
  5  6  1  0
M  ISO  2   1   2   6   4
M  END
>  <symbol>  (160) 
deamino_Ncy

>  <m_abbr>  (160) 
deamino_Ncy

>  <m_name>  (160) 
2-sulfanylacetic acid

>  <m_type>  (160) 
cap

>  <m_subtype>  (160) 
cap

>  <m_Rgroups>  (160) 
None,[OH],None,[H]

>  <m_chem_types>  (160) 
2:backbone_c,4:thiol

>  <m_activation_policy>  (160) 
canonical-sites-v1

$$$$

     RDKit          2D

 13 13  0  0  0  0  0  0  0  0999 V2000
   -3.9982    0.3321    0.0000 R   0  0  0  0  0  1  0  0  0  0  0  0
   -2.8441   -0.6260    0.0000 C   0  0  0  0  0  0  0  0  0  0  0  0
   -3.0967   -2.1046    0.0000 O   0  0  0  0  0  0  0  0  0  0  0  0
   -1.4373   -0.1056    0.0000 C   0  0  0  0  0  0  0  0  0  0  0  0
   -0.2831   -1.0637    0.0000 C   0  0  0  0  0  0  0  0  0  0  0  0
    1.1237   -0.5432    0.0000 C   0  0  0  0  0  0  0  0  0  0  0  0
    1.3763    0.9354    0.0000 C   0  0  0  0  0  0  0  0  0  0  0  0
    2.7831    1.4559    0.0000 C   0  0  0  0  0  0  0  0  0  0  0  0
    3.9373    0.4978    0.0000 C   0  0  0  0  0  0  0  0  0  0  0  0
    3.6846   -0.9808    0.0000 C   0  0  0  0  0  0  0  0  0  0  0  0
    2.2778   -1.5013    0.0000 C   0  0  0  0  0  0  0  0  0  0  0  0
   -1.1846    1.3730    0.0000 O   0  0  0  0  0  0  0  0  0  0  0  0
   -2.3388    2.3311    0.0000 R   0  0  0  0  0  1  0  0  0  0  0  0
  1  2  1  0
  2  3  2  0
  2  4  1  0
  4  5  1  0
  5  6  1  0
  6  7  2  0
  7  8  1  0
  8  9  2  0
  9 10  1  0
 10 11  2  0
  4 12  1  0
 12 13  1  0
 11  6  1  0
M  ISO  2   1   2  13   4
M  END
>  <symbol>  (161) 
deamino_Phe

>  <m_abbr>  (161) 
deamino_Phe

>  <m_name>  (161) 
Deamino-Phenylalanine

>  <m_type>  (161) 
cap

>  <m_subtype>  (161) 
cap

>  <m_Rgroups>  (161) 
None,[OH],None,[H]

>  <m_chem_types>  (161) 
2:backbone_c,4:hydroxyl

>  <m_activation_policy>  (161) 
canonical-sites-v1

$$$$

     RDKit          2D

 12 12  0  0  0  0  0  0  0  0999 V2000
   -4.2723   -0.7483    0.0000 R   0  0  0  0  0  1  0  0  0  0  0  0
   -2.8762   -0.1997    0.0000 C   0  0  0  0  0  0  0  0  0  0  0  0
   -2.6533    1.2836    0.0000 O   0  0  0  0  0  0  0  0  0  0  0  0
   -1.7031   -1.1345    0.0000 C   0  0  0  0  0  0  0  0  0  0  0  0
   -0.3070   -0.5859    0.0000 C   0  0  0  0  0  0  0  0  0  0  0  0
   -0.0840    0.8975    0.0000 C   0  0  0  0  0  0  0  0  0  0  0  0
    1.3120    1.4460    0.0000 C   0  0  0  0  0  0  0  0  0  0  0  0
    1.5350    2.9294    0.0000 C   0  0  0  0  0  0  0  0  0  0  0  0
    2.4852    0.5113    0.0000 C   0  0  0  0  0  0  0  0  0  0  0  0
    2.2622   -0.9720    0.0000 C   0  0  0  0  0  0  0  0  0  0  0  0
    3.4353   -1.9068    0.0000 C   0  0  0  0  0  0  0  0  0  0  0  0
    0.8661   -1.5206    0.0000 C   0  0  0  0  0  0  0  0  0  0  0  0
  1  2  1  0
  2  3  2  0
  2  4  1  0
  4  5  1  0
  5  6  2  0
  6  7  1  0
  7  8  1  0
  7  9  2  0
  9 10  1  0
 10 11  1  0
 10 12  2  0
 12  5  1  0
M  ISO  1   1   2
M  END
>  <symbol>  (162) 
deamino_Phg_35diMe

>  <m_abbr>  (162) 
deamino_Phg_35diMe

>  <m_name>  (162) 
2-(3,5-dimethylphenyl)acetic acid

>  <m_type>  (162) 
cap

>  <m_subtype>  (162) 
cap

>  <m_Rgroups>  (162) 
None,[OH]

>  <m_chem_types>  (162) 
2:backbone_c

>  <m_activation_policy>  (162) 
canonical-sites-v1

$$$$

     RDKit          2D

  8  7  0  0  0  0  0  0  0  0999 V2000
    3.1182    0.9820    0.0000 R   0  0  0  0  0  1  0  0  0  0  0  0
    1.9843    0.0000    0.0000 C   0  0  0  0  0  0  0  0  0  0  0  0
    2.2678   -1.4730    0.0000 O   0  0  0  0  0  0  0  0  0  0  0  0
    0.5669    0.4910    0.0000 C   0  0  0  0  0  0  0  0  0  0  0  0
   -0.5669   -0.4910    0.0000 C   0  0  0  0  0  0  0  0  0  0  0  0
   -1.9843   -0.0000    0.0000 C   0  0  0  0  0  0  0  0  0  0  0  0
   -3.1182   -0.9820    0.0000 C   0  0  0  0  0  0  0  0  0  0  0  0
   -2.2678    1.4730    0.0000 C   0  0  0  0  0  0  0  0  0  0  0  0
  1  2  1  0
  2  3  2  0
  2  4  1  0
  4  5  1  0
  5  6  1  0
  6  7  1  0
  6  8  1  0
M  ISO  1   1   2
M  END
>  <symbol>  (163) 
deamino_Leu

>  <m_abbr>  (163) 
deamino_Leu

>  <m_name>  (163) 
Deamino-Leucine

>  <m_type>  (163) 
cap

>  <m_subtype>  (163) 
cap

>  <m_Rgroups>  (163) 
None,[OH]

>  <m_chem_types>  (163) 
2:backbone_c

>  <m_activation_policy>  (163) 
canonical-sites-v1

$$$$

     RDKit          2D

  7  6  0  0  0  0  0  0  0  0999 V2000
    1.5086    1.6381    0.0000 R   0  0  0  0  0  1  0  0  0  0  0  0
    1.1803    0.1745    0.0000 C   0  0  0  0  0  0  0  0  0  0  0  0
    2.2837   -0.8417    0.0000 O   0  0  0  0  0  0  0  0  0  0  0  0
   -0.2514   -0.2730    0.0000 C   0  0  0  0  0  0  0  0  0  0  0  0
   -0.5797   -1.7367    0.0000 C   0  0  0  0  0  0  0  0  0  0  0  0
   -1.3548    0.7431    0.0000 O   0  0  0  0  0  0  0  0  0  0  0  0
   -2.7865    0.2956    0.0000 R   0  0  0  0  0  1  0  0  0  0  0  0
  1  2  1  0
  2  3  2  0
  2  4  1  0
  4  5  1  1
  4  6  1  0
  6  7  1  0
M  ISO  2   1   2   7   4
M  END
>  <symbol>  (164) 
D_OAla

>  <m_abbr>  (164) 
D_OAla

>  <m_name>  (164) 
(2R)-2-hydroxypropanoic acid

>  <m_type>  (164) 
cap

>  <m_subtype>  (164) 
cap

>  <m_Rgroups>  (164) 
None,[OH],None,[H]

>  <m_chem_types>  (164) 
2:backbone_c,4:hydroxyl

>  <m_activation_policy>  (164) 
canonical-sites-v1

$$$$

     RDKit          2D

  7  6  0  0  0  0  0  0  0  0999 V2000
    1.5086    1.6381    0.0000 R   0  0  0  0  0  1  0  0  0  0  0  0
    1.1803    0.1745    0.0000 C   0  0  0  0  0  0  0  0  0  0  0  0
    2.2837   -0.8417    0.0000 O   0  0  0  0  0  0  0  0  0  0  0  0
   -0.2514   -0.2730    0.0000 C   0  0  0  0  0  0  0  0  0  0  0  0
   -0.5797   -1.7367    0.0000 C   0  0  0  0  0  0  0  0  0  0  0  0
   -1.3548    0.7431    0.0000 O   0  0  0  0  0  0  0  0  0  0  0  0
   -2.7865    0.2956    0.0000 R   0  0  0  0  0  1  0  0  0  0  0  0
  1  2  1  0
  2  3  2  0
  2  4  1  0
  4  5  1  6
  4  6  1  0
  6  7  1  0
M  ISO  2   1   2   7   4
M  END
>  <symbol>  (165) 
L_OAla

>  <m_abbr>  (165) 
L_OAla

>  <m_name>  (165) 
(2S)-2-hydroxypropanoic acid

>  <m_type>  (165) 
cap

>  <m_subtype>  (165) 
cap

>  <m_Rgroups>  (165) 
None,[OH],None,[H]

>  <m_chem_types>  (165) 
2:backbone_c,4:hydroxyl

>  <m_activation_policy>  (165) 
canonical-sites-v1

$$$$

     RDKit          2D

  9  8  0  0  0  0  0  0  0  0999 V2000
    2.2500    1.5877    0.0000 R   0  0  0  0  0  1  0  0  0  0  0  0
    1.5000    0.2887    0.0000 C   0  0  0  0  0  0  0  0  0  0  0  0
    2.2500   -1.0104    0.0000 O   0  0  0  0  0  0  0  0  0  0  0  0
   -0.0000    0.2887    0.0000 C   0  0  0  0  0  0  0  0  0  0  0  0
   -0.7500    1.5877    0.0000 O   0  0  0  0  0  0  0  0  0  0  0  0
   -2.2500    1.5877    0.0000 R   0  0  0  0  0  1  0  0  0  0  0  0
   -0.7500   -1.0104    0.0000 C   0  0  0  0  0  0  0  0  0  0  0  0
   -2.2500   -1.0104    0.0000 C   0  0  0  0  0  0  0  0  0  0  0  0
    0.0000   -2.3094    0.0000 C   0  0  0  0  0  0  0  0  0  0  0  0
  1  2  1  0
  2  3  2  0
  2  4  1  0
  4  5  1  6
  5  6  1  0
  4  7  1  0
  7  8  1  0
  7  9  1  0
M  ISO  2   1   2   6   4
M  END
>  <symbol>  (166) 
L_OVal

>  <m_abbr>  (166) 
L_OVal

>  <m_name>  (166) 
(2S)-2-hydroxy-3-methylbutanoic acid

>  <m_type>  (166) 
cap

>  <m_subtype>  (166) 
cap

>  <m_Rgroups>  (166) 
None,[OH],None,[H]

>  <m_chem_types>  (166) 
2:backbone_c,4:hydroxyl

>  <m_activation_policy>  (166) 
canonical-sites-v1

$$$$

     RDKit          2D

 10 10  0  0  0  0  0  0  0  0999 V2000
   -3.7985   -0.4910    0.0000 R   0  0  0  0  0  1  0  0  0  0  0  0
   -2.3812   -0.0000    0.0000 N   0  0  0  0  0  0  0  0  0  0  0  0
   -2.0977    1.4730    0.0000 O   0  0  0  0  0  0  0  0  0  0  0  0
   -1.2473   -0.9820    0.0000 C   0  0  0  0  0  0  0  0  0  0  0  0
    0.1701   -0.4910    0.0000 C   0  0  0  0  0  0  0  0  0  0  0  0
    0.4536    0.9820    0.0000 C   0  0  0  0  0  0  0  0  0  0  0  0
    1.8709    1.4730    0.0000 C   0  0  0  0  0  0  0  0  0  0  0  0
    3.0048    0.4910    0.0000 C   0  0  0  0  0  0  0  0  0  0  0  0
    2.7213   -0.9820    0.0000 C   0  0  0  0  0  0  0  0  0  0  0  0
    1.3040   -1.4730    0.0000 C   0  0  0  0  0  0  0  0  0  0  0  0
  1  2  1  0
  2  3  1  0
  2  4  1  0
  4  5  1  0
  5  6  2  0
  6  7  1  0
  7  8  2  0
  8  9  1  0
  9 10  2  0
 10  5  1  0
M  ISO  1   1   1
M  END
>  <symbol>  (167) 
NHBn_

>  <m_abbr>  (167) 
NHBn_

>  <m_name>  (167) 
N-Terminal 1-phenylmethanamine

>  <m_type>  (167) 
cap

>  <m_subtype>  (167) 
cap

>  <m_Rgroups>  (167) 
[H]

>  <m_chem_types>  (167) 
1:backbone_n

>  <m_activation_policy>  (167) 
canonical-sites-v1

$$$$

     RDKit          2D

  9  9  0  0  0  0  0  0  0  0999 V2000
    2.5833   -1.2990    0.0000 R   0  0  0  0  0  1  0  0  0  0  0  0
    1.8333    0.0000    0.0000 C   0  0  0  0  0  0  0  0  0  0  0  0
    2.5833    1.2990    0.0000 O   0  0  0  0  0  0  0  0  0  0  0  0
    0.3333   -0.0000    0.0000 C   0  0  0  0  0  0  0  0  0  0  0  0
   -0.4167   -1.2990    0.0000 C   0  0  0  0  0  0  0  0  0  0  0  0
   -1.9167   -1.2990    0.0000 C   0  0  0  0  0  0  0  0  0  0  0  0
   -2.6667    0.0000    0.0000 C   0  0  0  0  0  0  0  0  0  0  0  0
   -1.9167    1.2990    0.0000 C   0  0  0  0  0  0  0  0  0  0  0  0
   -0.4167    1.2990    0.0000 C   0  0  0  0  0  0  0  0  0  0  0  0
  1  2  1  0
  2  3  2  0
  2  4  1  0
  4  5  2  0
  5  6  1  0
  6  7  2  0
  7  8  1  0
  8  9  2  0
  9  4  1  0
M  ISO  1   1   2
M  END
>  <symbol>  (168) 
Bz

>  <m_abbr>  (168) 
Bz

>  <m_name>  (168) 
Benzaldehyde

>  <m_type>  (168) 
cap

>  <m_subtype>  (168) 
cap

>  <m_Rgroups>  (168) 
None,[OH]

>  <m_chem_types>  (168) 
2:backbone_c

>  <m_activation_policy>  (168) 
canonical-sites-v1

$$$$

     RDKit          2D

  3  2  0  0  0  0  0  0  0  0999 V2000
   -1.2990   -0.2500    0.0000 R   0  0  0  0  0  1  0  0  0  0  0  0
    0.0000    0.5000    0.0000 C   0  0  0  0  0  0  0  0  0  0  0  0
    1.2990   -0.2500    0.0000 C   0  0  0  0  0  0  0  0  0  0  0  0
  1  2  1  0
  2  3  1  0
M  ISO  1   1   2
M  END
>  <symbol>  (169) 
Et_

>  <m_abbr>  (169) 
Et_

>  <m_name>  (169) 
N-Terminal ethyl

>  <m_type>  (169) 
cap

>  <m_subtype>  (169) 
cap

>  <m_Rgroups>  (169) 
None,[Br]

>  <m_chem_types>  (169) 
2:alkyl_halide_c

>  <m_activation_policy>  (169) 
canonical-sites-v1

$$$$

     RDKit          2D

  2  1  0  0  0  0  0  0  0  0999 V2000
   -0.7500    0.0000    0.0000 R   0  0  0  0  0  1  0  0  0  0  0  0
    0.7500   -0.0000    0.0000 C   0  0  0  0  0  0  0  0  0  0  0  0
  1  2  1  0
M  ISO  1   1   2
M  END
>  <symbol>  (170) 
Me_

>  <m_abbr>  (170) 
Me_

>  <m_name>  (170) 
N-Terminal methyl

>  <m_type>  (170) 
cap

>  <m_subtype>  (170) 
cap

>  <m_Rgroups>  (170) 
None,[I]

>  <m_chem_types>  (170) 
2:alkyl_halide_c

>  <m_activation_policy>  (170) 
canonical-sites-v1

$$$$

     RDKit          2D

 17 17  0  0  0  0  0  0  0  0999 V2000
   -3.4294    2.2554    0.0000 R   0  0  0  0  0  1  0  0  0  0  0  0
   -2.3129    1.2537    0.0000 N   0  0  0  0  0  0  0  0  0  0  0  0
   -0.8871    1.7198    0.0000 R   0  0  0  0  0  1  0  0  0  0  0  0
   -2.6221   -0.2140    0.0000 C   0  0  0  0  0  0  0  0  0  0  0  0
   -1.5056   -1.2157    0.0000 C   0  0  0  0  0  0  0  0  0  0  0  0
   -0.0798   -0.7496    0.0000 C   0  0  0  0  0  0  0  0  0  0  0  0
    0.2294    0.7181    0.0000 C   0  0  0  0  0  0  0  0  0  0  0  0
    1.6551    1.1842    0.0000 C   0  0  0  0  0  0  0  0  0  0  0  0
    2.7717    0.1825    0.0000 C   0  0  0  0  0  0  0  0  0  0  0  0
    4.1974    0.6486    0.0000 O   0  0  0  0  0  0  0  0  0  0  0  0
    5.3139   -0.3531    0.0000 C   0  0  0  0  0  0  0  0  0  0  0  0
    6.7397    0.1130    0.0000 C   0  0  0  0  0  0  0  0  0  0  0  0
    2.4624   -1.2853    0.0000 C   0  0  0  0  0  0  0  0  0  0  0  0
    1.0367   -1.7513    0.0000 C   0  0  0  0  0  0  0  0  0  0  0  0
   -4.0479   -0.6801    0.0000 C   0  0  0  0  0  0  0  0  0  0  0  0
   -5.1644    0.3216    0.0000 R   0  0  0  0  0  1  0  0  0  0  0  0
   -4.3571   -2.1479    0.0000 O   0  0  0  0  0  0  0  0  0  0  0  0
  1  2  1  0
  2  3  1  0
  2  4  1  0
  4  5  1  6
  5  6  1  0
  6  7  1  0
  7  8  2  0
  8  9  1  0
  9 10  1  0
 10 11  1  0
 11 12  1  0
  9 13  2  0
 13 14  1  0
  4 15  1  0
 15 16  1  0
 15 17  2  0
 14  6  2  0
M  ISO  3   1   1   3   3  16   2
M  END
>  <symbol>  (171) 
D_Tyr_Et

>  <m_abbr>  (171) 
D_Tyr_Et

>  <m_name>  (171) 
(2R)-2-amino-3-(4-ethoxyphenyl)propanoic acid

>  <m_type>  (171) 
aa

>  <m_subtype>  (171) 
natural

>  <m_Rgroups>  (171) 
[H],[OH],[H]

>  <m_chem_types>  (171) 
1:backbone_n,2:backbone_c,3:backbone_n_mod

>  <m_activation_policy>  (171) 
canonical-sites-v1

$$$$

     RDKit          2D

 16 15  0  0  0  0  0  0  0  0999 V2000
   -5.1587   -0.7795    0.0000 R   0  0  0  0  0  1  0  0  0  0  0  0
   -3.7186   -1.1993    0.0000 N   0  0  0  0  0  0  0  0  0  0  0  0
   -3.3622   -2.6563    0.0000 R   0  0  0  0  0  1  0  0  0  0  0  0
   -2.6350   -0.1621    0.0000 C   0  0  0  0  0  0  0  0  0  0  0  0
   -1.1950   -0.5819    0.0000 C   0  0  0  0  0  0  0  0  0  0  0  0
   -0.1114    0.4553    0.0000 C   0  0  0  0  0  0  0  0  0  0  0  0
    1.3287    0.0355    0.0000 C   0  0  0  0  0  0  0  0  0  0  0  0
    2.4123    1.0727    0.0000 C   0  0  0  0  0  0  0  0  0  0  0  0
    3.8523    0.6529    0.0000 N   0  0  0  0  0  0  0  0  0  0  0  0
    4.9359    1.6901    0.0000 R   0  0  0  0  0  1  0  0  0  0  0  0
    4.2088   -0.8041    0.0000 C   0  0  0  0  0  0  0  0  0  0  0  0
    5.6488   -1.2240    0.0000 C   0  0  0  0  0  0  0  0  0  0  0  0
    3.1252   -1.8414    0.0000 O   0  0  0  0  0  0  0  0  0  0  0  0
   -2.9915    1.2950    0.0000 C   0  0  0  0  0  0  0  0  0  0  0  0
   -1.9079    2.3322    0.0000 R   0  0  0  0  0  1  0  0  0  0  0  0
   -4.4315    1.7148    0.0000 O   0  0  0  0  0  0  0  0  0  0  0  0
  1  2  1  0
  2  3  1  0
  2  4  1  0
  4  5  1  6
  5  6  1  0
  6  7  1  0
  7  8  1  0
  8  9  1  0
  9 10  1  0
  9 11  1  0
 11 12  1  0
 11 13  2  0
  4 14  1  0
 14 15  1  0
 14 16  2  0
M  ISO  4   1   1   3   3  10   4  15   2
M  END
>  <symbol>  (172) 
Lys_Ac

>  <m_abbr>  (172) 
Lys_Ac

>  <m_name>  (172) 
(2S)-2-amino-6-acetamidohexanoic acid

>  <m_type>  (172) 
aa

>  <m_subtype>  (172) 
natural

>  <m_Rgroups>  (172) 
[H],[OH],[H],[H]

>  <m_chem_types>  (172) 
1:backbone_n,2:backbone_c,3:backbone_n_mod,4:amide_nh

>  <m_activation_policy>  (172) 
canonical-sites-v1

$$$$

     RDKit          2D

  3  2  0  0  0  0  0  0  0  0999 V2000
   -1.2990   -0.2500    0.0000 R   0  0  0  0  0  1  0  0  0  0  0  0
    0.0000    0.5000    0.0000 O   0  0  0  0  0  0  0  0  0  0  0  0
    1.2990   -0.2500    0.0000 C   0  0  0  0  0  0  0  0  0  0  0  0
  1  2  1  0
  2  3  1  0
M  ISO  1   1   1
M  END
>  <symbol>  (173) 
OMe_

>  <m_abbr>  (173) 
OMe_

>  <m_name>  (173) 
N-Terminal methanol

>  <m_type>  (173) 
cap

>  <m_subtype>  (173) 
cap

>  <m_Rgroups>  (173) 
[H]

>  <m_chem_types>  (173) 
1:backbone_o

>  <m_activation_policy>  (173) 
canonical-sites-v1

$$$$

     RDKit          2D

 12 11  0  0  0  0  0  0  0  0999 V2000
   -3.4702   -0.1409    0.0000 R   0  0  0  0  0  1  0  0  0  0  0  0
   -2.1954   -0.9314    0.0000 N   0  0  0  0  0  0  0  0  0  0  0  0
   -2.2426   -2.4307    0.0000 R   0  0  0  0  0  1  0  0  0  0  0  0
   -0.8735   -0.2226    0.0000 C   0  0  0  0  0  0  0  0  0  0  0  0
    0.4014   -1.0131    0.0000 C   0  0  0  0  0  0  0  0  0  0  0  0
    1.7233   -0.3043    0.0000 C   0  0  0  0  0  0  0  0  0  0  0  0
    1.7705    1.1949    0.0000 O   0  0  0  0  0  0  0  0  0  0  0  0
    2.9981   -1.0948    0.0000 O   0  0  0  0  0  0  0  0  0  0  0  0
    4.3201   -0.3860    0.0000 C   0  0  0  0  0  0  0  0  0  0  0  0
   -0.8263    1.2766    0.0000 C   0  0  0  0  0  0  0  0  0  0  0  0
    0.4957    1.9854    0.0000 R   0  0  0  0  0  1  0  0  0  0  0  0
   -2.1011    2.0671    0.0000 O   0  0  0  0  0  0  0  0  0  0  0  0
  1  2  1  0
  2  3  1  0
  2  4  1  0
  4  5  1  6
  5  6  1  0
  6  7  2  0
  6  8  1  0
  8  9  1  0
  4 10  1  0
 10 11  1  0
 10 12  2  0
M  ISO  3   1   1   3   3  11   2
M  END
>  <symbol>  (174) 
Asp_OMe

>  <m_abbr>  (174) 
Asp_OMe

>  <m_name>  (174) 
(2S)-2-amino-4-methoxy-4-oxobutanoic acid

>  <m_type>  (174) 
aa

>  <m_subtype>  (174) 
natural

>  <m_Rgroups>  (174) 
[H],[OH],[H]

>  <m_chem_types>  (174) 
1:backbone_n,2:backbone_c,3:backbone_n_mod

>  <m_activation_policy>  (174) 
canonical-sites-v1

$$$$

     RDKit          2D

 15 14  0  0  0  0  0  0  0  0999 V2000
   -2.2129    2.5521    0.0000 R   0  0  0  0  0  1  0  0  0  0  0  0
   -2.5172    1.0833    0.0000 N   0  0  0  0  0  0  0  0  0  0  0  0
   -3.9414    0.6125    0.0000 R   0  0  0  0  0  1  0  0  0  0  0  0
   -1.3974    0.0853    0.0000 C   0  0  0  0  0  0  0  0  0  0  0  0
   -1.7017   -1.3835    0.0000 C   0  0  0  0  0  0  0  0  0  0  0  0
   -0.5819   -2.3815    0.0000 C   0  0  0  0  0  0  0  0  0  0  0  0
   -0.8863   -3.8503    0.0000 C   0  0  0  0  0  0  0  0  0  0  0  0
    0.8423   -1.9106    0.0000 C   0  0  0  0  0  0  0  0  0  0  0  0
    0.0268    0.5561    0.0000 C   0  0  0  0  0  0  0  0  0  0  0  0
    1.1466   -0.4418    0.0000 C   0  0  0  0  0  0  0  0  0  0  0  0
    2.5708    0.0290    0.0000 C   0  0  0  0  0  0  0  0  0  0  0  0
    3.6907   -0.9690    0.0000 R   0  0  0  0  0  1  0  0  0  0  0  0
    2.8752    1.4978    0.0000 O   0  0  0  0  0  0  0  0  0  0  0  0
    0.3311    2.0249    0.0000 O   0  0  0  0  0  0  0  0  0  0  0  0
    1.7553    2.4958    0.0000 R   0  0  0  0  0  1  0  0  0  0  0  0
  1  2  1  0
  2  3  1  0
  2  4  1  0
  4  5  1  0
  5  6  1  0
  6  7  1  0
  6  8  1  0
  4  9  1  0
  9 10  1  0
 10 11  1  0
 11 12  1  0
 11 13  2  0
  9 14  1  0
 14 15  1  0
M  ISO  4   1   1   3   3  12   2  15   4
M  END
>  <symbol>  (175) 
Sta_3xi4xi

>  <m_abbr>  (175) 
Sta_3xi4xi

>  <m_name>  (175) 
4-amino-3-hydroxy-6-methylheptanoic acid

>  <m_type>  (175) 
aa

>  <m_subtype>  (175) 
natural

>  <m_Rgroups>  (175) 
[H],[OH],[H],[H]

>  <m_chem_types>  (175) 
1:backbone_n,2:backbone_c,3:backbone_n_mod,4:hydroxyl

>  <m_activation_policy>  (175) 
canonical-sites-v1

$$$$

     RDKit          2D

 16 16  0  0  0  0  0  0  0  0999 V2000
   -3.0227    2.2431    0.0000 R   0  0  0  0  0  1  0  0  0  0  0  0
   -1.8997    1.2486    0.0000 N   0  0  0  0  0  0  0  0  0  0  0  0
   -0.4770    1.7239    0.0000 R   0  0  0  0  0  1  0  0  0  0  0  0
   -2.1995   -0.2211    0.0000 C   0  0  0  0  0  0  0  0  0  0  0  0
   -1.0766   -1.2156    0.0000 C   0  0  0  0  0  0  0  0  0  0  0  0
    0.3462   -0.7404    0.0000 C   0  0  0  0  0  0  0  0  0  0  0  0
    0.6459    0.7294    0.0000 C   0  0  0  0  0  0  0  0  0  0  0  0
    2.0687    1.2046    0.0000 C   0  0  0  0  0  0  0  0  0  0  0  0
    3.1916    0.2101    0.0000 C   0  0  0  0  0  0  0  0  0  0  0  0
    4.6143    0.6854    0.0000 O   0  0  0  0  0  0  0  0  0  0  0  0
    5.7373   -0.3091    0.0000 C   0  0  0  0  0  0  0  0  0  0  0  0
    2.8918   -1.2596    0.0000 C   0  0  0  0  0  0  0  0  0  0  0  0
    1.4691   -1.7348    0.0000 C   0  0  0  0  0  0  0  0  0  0  0  0
   -3.6222   -0.6964    0.0000 C   0  0  0  0  0  0  0  0  0  0  0  0
   -4.7452    0.2981    0.0000 R   0  0  0  0  0  1  0  0  0  0  0  0
   -3.9220   -2.1661    0.0000 O   0  0  0  0  0  0  0  0  0  0  0  0
  1  2  1  0
  2  3  1  0
  2  4  1  0
  4  5  2  3
  5  6  1  0
  6  7  1  0
  7  8  2  0
  8  9  1  0
  9 10  1  0
 10 11  1  0
  9 12  2  0
 12 13  1  0
  4 14  1  0
 14 15  1  0
 14 16  2  0
 13  6  2  0
M  ISO  3   1   1   3   3  15   2
M  END
>  <symbol>  (176) 
Tyr_ab_dehydroMe

>  <m_abbr>  (176) 
Tyr_ab_dehydroMe

>  <m_name>  (176) 
2-amino-3-(4-methoxyphenyl)prop-2-enoic acid

>  <m_type>  (176) 
aa

>  <m_subtype>  (176) 
natural

>  <m_Rgroups>  (176) 
[H],[OH],[H]

>  <m_chem_types>  (176) 
1:backbone_n,2:backbone_c,3:backbone_n_mod

>  <m_activation_policy>  (176) 
canonical-sites-v1

$$$$

     RDKit          2D

 18 18  0  0  0  0  0  0  0  0999 V2000
   -0.8730    2.5321    0.0000 R   0  0  0  0  0  1  0  0  0  0  0  0
    0.1795    1.4633    0.0000 N   0  0  0  0  0  0  0  0  0  0  0  0
    1.6313    1.8405    0.0000 R   0  0  0  0  0  1  0  0  0  0  0  0
   -0.2198    0.0175    0.0000 C   0  0  0  0  0  0  0  0  0  0  0  0
    0.8327   -1.0513    0.0000 C   0  0  0  0  0  0  0  0  0  0  0  0
    2.2845   -0.6742    0.0000 C   0  0  0  0  0  0  0  0  0  0  0  0
    2.6839    0.7717    0.0000 C   0  0  0  0  0  0  0  0  0  0  0  0
    4.1357    1.1488    0.0000 C   0  0  0  0  0  0  0  0  0  0  0  0
    5.1882    0.0801    0.0000 C   0  0  0  0  0  0  0  0  0  0  0  0
    4.7889   -1.3658    0.0000 C   0  0  0  0  0  0  0  0  0  0  0  0
    3.3370   -1.7429    0.0000 C   0  0  0  0  0  0  0  0  0  0  0  0
   -1.6716   -0.3596    0.0000 C   0  0  0  0  0  0  0  0  0  0  0  0
   -2.7241    0.7091    0.0000 C   0  0  0  0  0  0  0  0  0  0  0  0
   -4.1759    0.3320    0.0000 C   0  0  0  0  0  0  0  0  0  0  0  0
   -5.2284    1.4007    0.0000 R   0  0  0  0  0  1  0  0  0  0  0  0
   -4.5752   -1.1139    0.0000 O   0  0  0  0  0  0  0  0  0  0  0  0
   -2.0709   -1.8055    0.0000 O   0  0  0  0  0  0  0  0  0  0  0  0
   -3.5227   -2.1826    0.0000 R   0  0  0  0  0  1  0  0  0  0  0  0
  1  2  1  0
  2  3  1  0
  2  4  1  0
  4  5  1  1
  5  6  1  0
  6  7  2  0
  7  8  1  0
  8  9  2  0
  9 10  1  0
 10 11  2  0
  4 12  1  0
 12 13  1  6
 13 14  1  0
 14 15  1  0
 14 16  2  0
 12 17  1  0
 17 18  1  0
 11  6  1  0
M  ISO  4   1   1   3   3  15   2  18   4
M  END
>  <symbol>  (177) 
App

>  <m_abbr>  (177) 
App

>  <m_name>  (177) 
gamma-amino-beta-hydroxybenzenepentanoic acid

>  <m_type>  (177) 
aa

>  <m_subtype>  (177) 
natural

>  <m_Rgroups>  (177) 
[H],[OH],[H],[H]

>  <m_chem_types>  (177) 
1:backbone_n,2:backbone_c,3:backbone_n_mod,4:hydroxyl

>  <m_activation_policy>  (177) 
canonical-sites-v1

$$$$

     RDKit          2D

 18 18  0  0  0  0  0  0  0  0999 V2000
   -2.8868   -2.2912    0.0000 R   0  0  0  0  0  1  0  0  0  0  0  0
   -1.4789   -1.7738    0.0000 N   0  0  0  0  0  0  0  0  0  0  0  0
   -0.3268   -2.7343    0.0000 R   0  0  0  0  0  1  0  0  0  0  0  0
   -1.2231   -0.2957    0.0000 C   0  0  0  0  0  0  0  0  0  0  0  0
    0.1849    0.2217    0.0000 C   0  0  0  0  0  0  0  0  0  0  0  0
    1.3370   -0.7388    0.0000 C   0  0  0  0  0  0  0  0  0  0  0  0
    2.7449   -0.2214    0.0000 C   0  0  0  0  0  0  0  0  0  0  0  0
    3.0007    1.2567    0.0000 C   0  0  0  0  0  0  0  0  0  0  0  0
    4.4086    1.7741    0.0000 C   0  0  0  0  0  0  0  0  0  0  0  0
    5.5607    0.8136    0.0000 C   0  0  0  0  0  0  0  0  0  0  0  0
    5.3049   -0.6645    0.0000 C   0  0  0  0  0  0  0  0  0  0  0  0
    3.8970   -1.1819    0.0000 C   0  0  0  0  0  0  0  0  0  0  0  0
   -2.3752    0.6648    0.0000 C   0  0  0  0  0  0  0  0  0  0  0  0
   -2.1193    2.1428    0.0000 O   0  0  0  0  0  0  0  0  0  0  0  0
   -3.2714    3.1034    0.0000 R   0  0  0  0  0  1  0  0  0  0  0  0
   -3.7831    0.1473    0.0000 C   0  0  0  0  0  0  0  0  0  0  0  0
   -4.9352    1.1079    0.0000 R   0  0  0  0  0  1  0  0  0  0  0  0
   -4.0389   -1.3307    0.0000 O   0  0  0  0  0  0  0  0  0  0  0  0
  1  2  1  0
  2  3  1  0
  2  4  1  0
  4  5  1  6
  5  6  1  0
  6  7  1  0
  7  8  1  0
  8  9  1  0
  9 10  1  0
 10 11  1  0
 11 12  1  0
  4 13  1  0
 13 14  1  6
 14 15  1  0
 13 16  1  0
 16 17  1  0
 16 18  2  0
 12  7  1  0
M  ISO  4   1   1   3   3  15   4  17   2
M  END
>  <symbol>  (178) 
Cap

>  <m_abbr>  (178) 
Cap

>  <m_name>  (178) 
(2R,3S)-3-amino-5-cyclohexyl-2-hydroxypentanoic acid

>  <m_type>  (178) 
aa

>  <m_subtype>  (178) 
natural

>  <m_Rgroups>  (178) 
[H],[OH],[H],[H]

>  <m_chem_types>  (178) 
1:backbone_n,2:backbone_c,3:backbone_n_mod,4:hydroxyl

>  <m_activation_policy>  (178) 
canonical-sites-v1

$$$$

     RDKit          2D

 12 11  0  0  0  0  0  0  0  0999 V2000
   -2.2920    2.5087    0.0000 R   0  0  0  0  0  1  0  0  0  0  0  0
   -2.4149    1.0137    0.0000 N   0  0  0  0  0  0  0  0  0  0  0  0
   -3.7710    0.3727    0.0000 R   0  0  0  0  0  1  0  0  0  0  0  0
   -1.1817    0.1598    0.0000 C   0  0  0  0  0  0  0  0  0  0  0  0
    0.1744    0.8009    0.0000 C   0  0  0  0  0  0  0  0  0  0  0  0
    1.4077   -0.0530    0.0000 S   0  0  0  0  0  0  0  0  0  0  0  0
    2.7638    0.5881    0.0000 S   0  0  0  0  0  0  0  0  0  0  0  0
    3.9970   -0.2658    0.0000 C   0  0  0  0  0  0  0  0  0  0  0  0
    5.3531    0.3752    0.0000 C   0  0  0  0  0  0  0  0  0  0  0  0
   -1.3045   -1.3351    0.0000 C   0  0  0  0  0  0  0  0  0  0  0  0
   -0.0713   -2.1890    0.0000 R   0  0  0  0  0  1  0  0  0  0  0  0
   -2.6607   -1.9762    0.0000 O   0  0  0  0  0  0  0  0  0  0  0  0
  1  2  1  0
  2  3  1  0
  2  4  1  0
  4  5  1  1
  5  6  1  0
  6  7  1  0
  7  8  1  0
  8  9  1  0
  4 10  1  0
 10 11  1  0
 10 12  2  0
M  ISO  3   1   1   3   3  11   2
M  END
>  <symbol>  (179) 
Cys_SEt

>  <m_abbr>  (179) 
Cys_SEt

>  <m_name>  (179) 
(2R)-2-amino-3-(ethyldisulfanyl)propanoic acid

>  <m_type>  (179) 
aa

>  <m_subtype>  (179) 
natural

>  <m_Rgroups>  (179) 
[H],[OH],[H]

>  <m_chem_types>  (179) 
1:backbone_n,2:backbone_c,3:backbone_n_mod

>  <m_activation_policy>  (179) 
canonical-sites-v1

$$$$

     RDKit          2D

 18 17  0  0  0  0  0  0  0  0999 V2000
   -5.8370   -0.4915    0.0000 R   0  0  0  0  0  1  0  0  0  0  0  0
   -4.4416   -1.0416    0.0000 N   0  0  0  0  0  0  0  0  0  0  0  0
   -4.2203   -2.5252    0.0000 R   0  0  0  0  0  1  0  0  0  0  0  0
   -3.2674   -0.1082    0.0000 C   0  0  0  0  0  0  0  0  0  0  0  0
   -1.8719   -0.6584    0.0000 C   0  0  0  0  0  0  0  0  0  0  0  0
   -0.6977    0.2751    0.0000 C   0  0  0  0  0  0  0  0  0  0  0  0
    0.6977   -0.2751    0.0000 C   0  0  0  0  0  0  0  0  0  0  0  0
    1.8719    0.6584    0.0000 C   0  0  0  0  0  0  0  0  0  0  0  0
    3.2674    0.1082    0.0000 C   0  0  0  0  0  0  0  0  0  0  0  0
    4.4416    1.0416    0.0000 C   0  0  0  0  0  0  0  0  0  0  0  0
    5.8370    0.4915    0.0000 R   0  0  0  0  0  1  0  0  0  0  0  0
    4.2203    2.5252    0.0000 O   0  0  0  0  0  0  0  0  0  0  0  0
    3.4887   -1.3754    0.0000 N   0  0  0  0  0  0  0  0  0  0  0  0
    4.8841   -1.9255    0.0000 R   0  0  0  0  0  1  0  0  0  0  0  0
    2.3145   -2.3088    0.0000 R   0  0  0  0  0  1  0  0  0  0  0  0
   -3.4887    1.3754    0.0000 C   0  0  0  0  0  0  0  0  0  0  0  0
   -2.3145    2.3088    0.0000 R   0  0  0  0  0  1  0  0  0  0  0  0
   -4.8841    1.9255    0.0000 O   0  0  0  0  0  0  0  0  0  0  0  0
  1  2  1  0
  2  3  1  0
  2  4  1  0
  4  5  1  0
  5  6  1  0
  6  7  1  0
  7  8  1  0
  9  8  1  1
  9 10  1  0
 10 11  1  0
 10 12  2  0
  9 13  1  0
 13 14  1  0
 13 15  1  0
  4 16  1  0
 16 17  1  0
 16 18  2  0
M  ISO  6   1   1   3   3  11   6  14   4  15   5  17   2
M  END
>  <symbol>  (180) 
Dsu

>  <m_abbr>  (180) 
Dsu

>  <m_name>  (180) 
2,7-Diaminosuberic acid

>  <m_type>  (180) 
aa

>  <m_subtype>  (180) 
natural

>  <m_Rgroups>  (180) 
[H],[OH],[H],[H],[H],[OH]

>  <m_chem_types>  (180) 
1:backbone_n,2:backbone_c,3:backbone_n_mod,4:amine_primary,5:amine_primary,6:carboxyl

>  <m_activation_policy>  (180) 
canonical-sites-v1

$$$$

     RDKit          2D

 12 12  0  0  0  0  0  0  0  0999 V2000
   -2.2215   -2.1485    0.0000 R   0  0  0  0  0  1  0  0  0  0  0  0
   -0.8947   -1.4487    0.0000 N   0  0  0  0  0  0  0  0  0  0  0  0
    0.4513   -2.1108    0.0000 C   0  0  0  0  0  0  0  0  0  0  0  0
    1.4969   -1.0353    0.0000 C   0  0  0  0  0  0  0  0  0  0  0  0
    2.9816   -1.2490    0.0000 C   0  0  0  0  0  0  0  0  0  0  0  0
    0.7971    0.2915    0.0000 C   0  0  0  0  0  0  0  0  0  0  0  0
    1.4592    1.6375    0.0000 O   0  0  0  0  0  0  0  0  0  0  0  0
    2.9559    1.7371    0.0000 R   0  0  0  0  0  1  0  0  0  0  0  0
   -0.6809    0.0360    0.0000 C   0  0  0  0  0  0  0  0  0  0  0  0
   -1.7565    1.0816    0.0000 C   0  0  0  0  0  0  0  0  0  0  0  0
   -1.3887    2.5358    0.0000 R   0  0  0  0  0  1  0  0  0  0  0  0
   -3.1997    0.6730    0.0000 O   0  0  0  0  0  0  0  0  0  0  0  0
  1  2  1  0
  2  3  1  0
  3  4  1  0
  4  5  1  0
  4  6  1  0
  6  7  1  0
  7  8  1  0
  6  9  1  0
  9 10  1  6
 10 11  1  0
 10 12  2  0
  9  2  1  0
M  ISO  3   1   1   8   4  11   2
M  END
>  <symbol>  (181) 
Pro_4Me3OH

>  <m_abbr>  (181) 
Pro_4Me3OH

>  <m_name>  (181) 
(2S)-3-hydroxy-4-methylpyrrolidine-2-carboxylic acid

>  <m_type>  (181) 
aa

>  <m_subtype>  (181) 
natural

>  <m_Rgroups>  (181) 
[H],[OH],None,[H]

>  <m_chem_types>  (181) 
1:backbone_n,2:backbone_c,4:hydroxyl

>  <m_activation_policy>  (181) 
canonical-sites-v1

$$$$

     RDKit          2D

 11 10  0  0  0  0  0  0  0  0999 V2000
   -3.0813    0.0866    0.0000 R   0  0  0  0  0  1  0  0  0  0  0  0
   -1.8784   -0.8095    0.0000 N   0  0  0  0  0  0  0  0  0  0  0  0
   -2.0531   -2.2993    0.0000 R   0  0  0  0  0  1  0  0  0  0  0  0
   -0.5009   -0.2159    0.0000 C   0  0  0  0  0  0  0  0  0  0  0  0
    0.7020   -1.1120    0.0000 C   0  0  0  0  0  0  0  0  0  0  0  0
    2.0795   -0.5184    0.0000 C   0  0  0  0  0  0  0  0  0  0  0  0
    3.2824   -1.4145    0.0000 R   0  0  0  0  0  1  0  0  0  0  0  0
    2.2541    0.9714    0.0000 O   0  0  0  0  0  0  0  0  0  0  0  0
   -0.3263    1.2739    0.0000 C   0  0  0  0  0  0  0  0  0  0  0  0
    1.0513    1.8676    0.0000 R   0  0  0  0  0  1  0  0  0  0  0  0
   -1.5291    2.1701    0.0000 O   0  0  0  0  0  0  0  0  0  0  0  0
  1  2  1  0
  2  3  1  0
  2  4  1  0
  4  5  1  6
  5  6  1  0
  6  7  1  0
  6  8  2  0
  4  9  1  0
  9 10  1  0
  9 11  2  0
M  ISO  4   1   1   3   3   7   2  10   4
M  END
>  <symbol>  (182) 
Asp_al

>  <m_abbr>  (182) 
Asp_al

>  <m_name>  (182) 
(3S)-3-amino-4-oxobutanoic acid

>  <m_type>  (182) 
aa

>  <m_subtype>  (182) 
natural

>  <m_Rgroups>  (182) 
[H],[OH],[H],[H]

>  <m_chem_types>  (182) 
1:backbone_n,2:backbone_c,3:backbone_n_mod,4:aldehyde

>  <m_activation_policy>  (182) 
canonical-sites-v1

$$$$

     RDKit          2D

  9  9  0  0  0  0  0  0  0  0999 V2000
   -4.0444    0.0606    0.0000 R   0  0  0  0  0  1  0  0  0  0  0  0
   -2.5865    0.4135    0.0000 N   0  0  0  0  0  0  0  0  0  0  0  0
   -1.5520   -0.6727    0.0000 C   0  0  0  0  0  0  0  0  0  0  0  0
   -0.0941   -0.3198    0.0000 C   0  0  0  0  0  0  0  0  0  0  0  0
    0.3293    1.1192    0.0000 C   0  0  0  0  0  0  0  0  0  0  0  0
    1.7872    1.4721    0.0000 C   0  0  0  0  0  0  0  0  0  0  0  0
    2.8217    0.3860    0.0000 C   0  0  0  0  0  0  0  0  0  0  0  0
    2.3984   -1.0531    0.0000 C   0  0  0  0  0  0  0  0  0  0  0  0
    0.9405   -1.4059    0.0000 C   0  0  0  0  0  0  0  0  0  0  0  0
  1  2  1  0
  2  3  1  0
  3  4  1  0
  4  5  2  0
  5  6  1  0
  6  7  2  0
  7  8  1  0
  8  9  2  0
  9  4  1  0
M  ISO  1   1   1
M  END
>  <symbol>  (183) 
_NHBn

>  <m_abbr>  (183) 
_NHBn

>  <m_name>  (183) 
C-Terminal 1-phenylmethanamine

>  <m_type>  (183) 
cap

>  <m_subtype>  (183) 
cap

>  <m_Rgroups>  (183) 
[H]

>  <m_chem_types>  (183) 
1:backbone_n

>  <m_activation_policy>  (183) 
canonical-sites-v1

$$$$

     RDKit          2D

  3  2  0  0  0  0  0  0  0  0999 V2000
   -1.2990   -0.2500    0.0000 R   0  0  0  0  0  1  0  0  0  0  0  0
    0.0000    0.5000    0.0000 N   0  0  0  0  0  0  0  0  0  0  0  0
    1.2990   -0.2500    0.0000 C   0  0  0  0  0  0  0  0  0  0  0  0
  1  2  1  0
  2  3  1  0
M  ISO  1   1   1
M  END
>  <symbol>  (184) 
NHMe

>  <m_abbr>  (184) 
NHMe

>  <m_name>  (184) 
Methanamine

>  <m_type>  (184) 
cap

>  <m_subtype>  (184) 
cap

>  <m_Rgroups>  (184) 
[H]

>  <m_chem_types>  (184) 
1:backbone_n

>  <m_activation_policy>  (184) 
canonical-sites-v1

$$$$

     RDKit          2D

 13 12  0  0  0  0  0  0  0  0999 V2000
   -3.7540   -0.5823    0.0000 R   0  0  0  0  0  1  0  0  0  0  0  0
   -2.3396   -1.0816    0.0000 N   0  0  0  0  0  0  0  0  0  0  0  0
   -2.0647   -2.5562    0.0000 R   0  0  0  0  0  1  0  0  0  0  0  0
   -1.2000   -0.1063    0.0000 C   0  0  0  0  0  0  0  0  0  0  0  0
    0.2145   -0.6056    0.0000 C   0  0  0  0  0  0  0  0  0  0  0  0
    1.3541    0.3698    0.0000 C   0  0  0  0  0  0  0  0  0  0  0  0
    2.7686   -0.1295    0.0000 S   0  0  0  0  0  0  0  0  0  0  0  0
    4.1831   -0.6288    0.0000 C   0  0  0  0  0  0  0  0  0  0  0  0
    2.2693   -1.5440    0.0000 O   0  0  0  0  0  0  0  0  0  0  0  0
    3.2679    1.2850    0.0000 O   0  0  0  0  0  0  0  0  0  0  0  0
   -1.4748    1.3683    0.0000 C   0  0  0  0  0  0  0  0  0  0  0  0
   -0.3352    2.3436    0.0000 R   0  0  0  0  0  1  0  0  0  0  0  0
   -2.8893    1.8676    0.0000 O   0  0  0  0  0  0  0  0  0  0  0  0
  1  2  1  0
  2  3  1  0
  2  4  1  0
  4  5  1  6
  5  6  1  0
  6  7  1  0
  7  8  1  0
  7  9  2  0
  7 10  2  0
  4 11  1  0
 11 12  1  0
 11 13  2  0
M  ISO  3   1   1   3   3  12   2
M  END
>  <symbol>  (185) 
Met_O2

>  <m_abbr>  (185) 
Met_O2

>  <m_name>  (185) 
(2S)-2-amino-4-methanesulfonylbutanoic acid

>  <m_type>  (185) 
aa

>  <m_subtype>  (185) 
natural

>  <m_Rgroups>  (185) 
[H],[OH],[H]

>  <m_chem_types>  (185) 
1:backbone_n,2:backbone_c,3:backbone_n_mod

>  <m_activation_policy>  (185) 
canonical-sites-v1

$$$$

     RDKit          2D

 15 15  0  0  0  0  0  0  0  0999 V2000
   -2.6971    2.1670    0.0000 R   0  0  0  0  0  1  0  0  0  0  0  0
   -1.4605    1.3179    0.0000 N   0  0  0  0  0  0  0  0  0  0  0  0
   -0.1069    1.9643    0.0000 R   0  0  0  0  0  1  0  0  0  0  0  0
   -1.5775   -0.1775    0.0000 C   0  0  0  0  0  0  0  0  0  0  0  0
   -0.3409   -1.0265    0.0000 C   0  0  0  0  0  0  0  0  0  0  0  0
    1.0127   -0.3802    0.0000 C   0  0  0  0  0  0  0  0  0  0  0  0
    1.1297    1.1153    0.0000 C   0  0  0  0  0  0  0  0  0  0  0  0
    2.4833    1.7617    0.0000 C   0  0  0  0  0  0  0  0  0  0  0  0
    3.7198    0.9126    0.0000 C   0  0  0  0  0  0  0  0  0  0  0  0
    3.6028   -0.5828    0.0000 C   0  0  0  0  0  0  0  0  0  0  0  0
    2.2492   -1.2292    0.0000 C   0  0  0  0  0  0  0  0  0  0  0  0
    2.1322   -2.7246    0.0000 C   0  0  0  0  0  0  0  0  0  0  0  0
   -2.9311   -0.8239    0.0000 C   0  0  0  0  0  0  0  0  0  0  0  0
   -4.1677    0.0252    0.0000 R   0  0  0  0  0  1  0  0  0  0  0  0
   -3.0481   -2.3193    0.0000 O   0  0  0  0  0  0  0  0  0  0  0  0
  1  2  1  0
  2  3  1  0
  2  4  1  0
  4  5  1  1
  5  6  1  0
  6  7  2  0
  7  8  1  0
  8  9  2  0
  9 10  1  0
 10 11  2  0
 11 12  1  0
  4 13  1  0
 13 14  1  0
 13 15  2  0
 11  6  1  0
M  ISO  3   1   1   3   3  14   2
M  END
>  <symbol>  (186) 
Phe_2Me

>  <m_abbr>  (186) 
Phe_2Me

>  <m_name>  (186) 
(2S)-2-amino-3-(2-methylphenyl)propanoic acid

>  <m_type>  (186) 
aa

>  <m_subtype>  (186) 
natural

>  <m_Rgroups>  (186) 
[H],[OH],[H]

>  <m_chem_types>  (186) 
1:backbone_n,2:backbone_c,3:backbone_n_mod

>  <m_activation_policy>  (186) 
canonical-sites-v1

$$$$

     RDKit          2D

 16 16  0  0  0  0  0  0  0  0999 V2000
   -3.0766    2.1502    0.0000 R   0  0  0  0  0  1  0  0  0  0  0  0
   -1.8854    1.2385    0.0000 N   0  0  0  0  0  0  0  0  0  0  0  0
   -0.5003    1.8143    0.0000 R   0  0  0  0  0  1  0  0  0  0  0  0
   -2.0794   -0.2489    0.0000 C   0  0  0  0  0  0  0  0  0  0  0  0
   -0.8882   -1.1605    0.0000 C   0  0  0  0  0  0  0  0  0  0  0  0
    0.4969   -0.5848    0.0000 C   0  0  0  0  0  0  0  0  0  0  0  0
    0.6908    0.9026    0.0000 C   0  0  0  0  0  0  0  0  0  0  0  0
    2.0759    1.4784    0.0000 C   0  0  0  0  0  0  0  0  0  0  0  0
    3.2671    0.5667    0.0000 C   0  0  0  0  0  0  0  0  0  0  0  0
    4.6522    1.1425    0.0000 Cl  0  0  0  0  0  0  0  0  0  0  0  0
    3.0732   -0.9207    0.0000 C   0  0  0  0  0  0  0  0  0  0  0  0
    4.2643   -1.8323    0.0000 Cl  0  0  0  0  0  0  0  0  0  0  0  0
    1.6881   -1.4964    0.0000 C   0  0  0  0  0  0  0  0  0  0  0  0
   -3.4645   -0.8246    0.0000 C   0  0  0  0  0  0  0  0  0  0  0  0
   -4.6556    0.0870    0.0000 R   0  0  0  0  0  1  0  0  0  0  0  0
   -3.6584   -2.3121    0.0000 O   0  0  0  0  0  0  0  0  0  0  0  0
  1  2  1  0
  2  3  1  0
  2  4  1  0
  4  5  1  1
  5  6  1  0
  6  7  1  0
  7  8  2  0
  8  9  1  0
  9 10  1  0
  9 11  2  0
 11 12  1  0
 11 13  1  0
  4 14  1  0
 14 15  1  0
 14 16  2  0
 13  6  2  0
M  ISO  3   1   1   3   3  15   2
M  END
>  <symbol>  (187) 
Phe_34diCl

>  <m_abbr>  (187) 
Phe_34diCl

>  <m_name>  (187) 
(2S)-2-amino-3-(3,4-dichlorophenyl)propanoic acid

>  <m_type>  (187) 
aa

>  <m_subtype>  (187) 
natural

>  <m_Rgroups>  (187) 
[H],[OH],[H]

>  <m_chem_types>  (187) 
1:backbone_n,2:backbone_c,3:backbone_n_mod

>  <m_activation_policy>  (187) 
canonical-sites-v1

$$$$

     RDKit          2D

 15 15  0  0  0  0  0  0  0  0999 V2000
   -2.5933    2.2771    0.0000 R   0  0  0  0  0  1  0  0  0  0  0  0
   -1.4913    1.2594    0.0000 N   0  0  0  0  0  0  0  0  0  0  0  0
   -0.0590    1.7049    0.0000 R   0  0  0  0  0  1  0  0  0  0  0  0
   -1.8217   -0.2038    0.0000 C   0  0  0  0  0  0  0  0  0  0  0  0
   -0.7197   -1.2215    0.0000 C   0  0  0  0  0  0  0  0  0  0  0  0
    0.7126   -0.7760    0.0000 C   0  0  0  0  0  0  0  0  0  0  0  0
    1.0430    0.6872    0.0000 C   0  0  0  0  0  0  0  0  0  0  0  0
    2.4753    1.1326    0.0000 C   0  0  0  0  0  0  0  0  0  0  0  0
    3.5773    0.1149    0.0000 C   0  0  0  0  0  0  0  0  0  0  0  0
    5.0096    0.5604    0.0000 Br  0  0  0  0  0  0  0  0  0  0  0  0
    3.2469   -1.3482    0.0000 C   0  0  0  0  0  0  0  0  0  0  0  0
    1.8146   -1.7937    0.0000 C   0  0  0  0  0  0  0  0  0  0  0  0
   -3.2540   -0.6493    0.0000 C   0  0  0  0  0  0  0  0  0  0  0  0
   -4.3559    0.3684    0.0000 R   0  0  0  0  0  1  0  0  0  0  0  0
   -3.5844   -2.1124    0.0000 O   0  0  0  0  0  0  0  0  0  0  0  0
  1  2  1  0
  2  3  1  0
  2  4  1  0
  4  5  1  1
  5  6  1  0
  6  7  1  0
  7  8  2  0
  8  9  1  0
  9 10  1  0
  9 11  2  0
 11 12  1  0
  4 13  1  0
 13 14  1  0
 13 15  2  0
 12  6  2  0
M  ISO  3   1   1   3   3  14   2
M  END
>  <symbol>  (188) 
Phe_4Br

>  <m_abbr>  (188) 
Phe_4Br

>  <m_name>  (188) 
(2S)-2-amino-3-(4-bromophenyl)propanoic acid

>  <m_type>  (188) 
aa

>  <m_subtype>  (188) 
natural

>  <m_Rgroups>  (188) 
[H],[OH],[H]

>  <m_chem_types>  (188) 
1:backbone_n,2:backbone_c,3:backbone_n_mod

>  <m_activation_policy>  (188) 
canonical-sites-v1

$$$$

     RDKit          2D

 15 15  0  0  0  0  0  0  0  0999 V2000
   -2.5933    2.2771    0.0000 R   0  0  0  0  0  1  0  0  0  0  0  0
   -1.4913    1.2594    0.0000 N   0  0  0  0  0  0  0  0  0  0  0  0
   -0.0590    1.7049    0.0000 R   0  0  0  0  0  1  0  0  0  0  0  0
   -1.8217   -0.2038    0.0000 C   0  0  0  0  0  0  0  0  0  0  0  0
   -0.7197   -1.2215    0.0000 C   0  0  0  0  0  0  0  0  0  0  0  0
    0.7126   -0.7760    0.0000 C   0  0  0  0  0  0  0  0  0  0  0  0
    1.0430    0.6872    0.0000 C   0  0  0  0  0  0  0  0  0  0  0  0
    2.4753    1.1326    0.0000 C   0  0  0  0  0  0  0  0  0  0  0  0
    3.5773    0.1149    0.0000 C   0  0  0  0  0  0  0  0  0  0  0  0
    5.0096    0.5604    0.0000 I   0  0  0  0  0  0  0  0  0  0  0  0
    3.2469   -1.3482    0.0000 C   0  0  0  0  0  0  0  0  0  0  0  0
    1.8146   -1.7937    0.0000 C   0  0  0  0  0  0  0  0  0  0  0  0
   -3.2540   -0.6493    0.0000 C   0  0  0  0  0  0  0  0  0  0  0  0
   -4.3559    0.3684    0.0000 R   0  0  0  0  0  1  0  0  0  0  0  0
   -3.5844   -2.1124    0.0000 O   0  0  0  0  0  0  0  0  0  0  0  0
  1  2  1  0
  2  3  1  0
  2  4  1  0
  4  5  1  1
  5  6  1  0
  6  7  1  0
  7  8  2  0
  8  9  1  0
  9 10  1  0
  9 11  2  0
 11 12  1  0
  4 13  1  0
 13 14  1  0
 13 15  2  0
 12  6  2  0
M  ISO  3   1   1   3   3  14   2
M  END
>  <symbol>  (189) 
Phe_4I

>  <m_abbr>  (189) 
Phe_4I

>  <m_name>  (189) 
(2S)-2-amino-3-(4-iodophenyl)propanoic acid

>  <m_type>  (189) 
aa

>  <m_subtype>  (189) 
natural

>  <m_Rgroups>  (189) 
[H],[OH],[H]

>  <m_chem_types>  (189) 
1:backbone_n,2:backbone_c,3:backbone_n_mod

>  <m_activation_policy>  (189) 
canonical-sites-v1

$$$$

     RDKit          2D

 28 29  0  0  0  0  0  0  0  0999 V2000
   -5.6536    2.7335    0.0000 R   0  0  0  0  0  1  0  0  0  0  0  0
   -4.9028    1.4349    0.0000 N   0  0  0  0  0  0  0  0  0  0  0  0
   -3.4028    1.4359    0.0000 R   0  0  0  0  0  1  0  0  0  0  0  0
   -5.6519    0.1354    0.0000 C   0  0  0  0  0  0  0  0  0  0  0  0
   -4.9010   -1.1631    0.0000 C   0  0  0  0  0  0  0  0  0  0  0  0
   -3.4010   -1.1621    0.0000 C   0  0  0  0  0  0  0  0  0  0  0  0
   -2.6519    0.1374    0.0000 C   0  0  0  0  0  0  0  0  0  0  0  0
   -1.1519    0.1384    0.0000 C   0  0  0  0  0  0  0  0  0  0  0  0
   -0.4010   -1.1601    0.0000 C   0  0  0  0  0  0  0  0  0  0  0  0
    1.0990   -1.1591    0.0000 N   0  0  0  0  0  0  0  0  0  0  0  0
    1.8499   -2.4577    0.0000 R   0  0  0  0  0  1  0  0  0  0  0  0
    1.8481    0.1404    0.0000 C   0  0  0  0  0  0  0  0  0  0  0  0
    1.0972    1.4390    0.0000 O   0  0  0  0  0  0  0  0  0  0  0  0
    3.3481    0.1414    0.0000 C   0  0  0  0  0  0  0  0  0  0  0  0
    4.0990   -1.1571    0.0000 C   0  0  0  0  0  0  0  0  0  0  0  0
    5.5990   -1.1561    0.0000 C   0  0  0  0  0  0  0  0  0  0  0  0
    6.3499   -2.4546    0.0000 O   0  0  0  0  0  0  0  0  0  0  0  0
    6.3481    0.1434    0.0000 N   0  0  0  0  0  0  0  0  0  0  0  0
    7.8481    0.1445    0.0000 R   0  0  0  0  0  1  0  0  0  0  0  0
    5.5972    1.4420    0.0000 C   0  0  0  0  0  0  0  0  0  0  0  0
    6.3464    2.7415    0.0000 O   0  0  0  0  0  0  0  0  0  0  0  0
    4.0972    1.4410    0.0000 N   0  0  0  0  0  0  0  0  0  0  0  0
    3.3464    2.7395    0.0000 R   0  0  0  0  0  1  0  0  0  0  0  0
   -1.1501   -2.4597    0.0000 C   0  0  0  0  0  0  0  0  0  0  0  0
   -2.6501   -2.4607    0.0000 C   0  0  0  0  0  0  0  0  0  0  0  0
   -7.1519    0.1344    0.0000 C   0  0  0  0  0  0  0  0  0  0  0  0
   -7.9028    1.4329    0.0000 R   0  0  0  0  0  1  0  0  0  0  0  0
   -7.9010   -1.1652    0.0000 O   0  0  0  0  0  0  0  0  0  0  0  0
  1  2  1  0
  2  3  1  0
  2  4  1  0
  4  5  1  1
  5  6  1  0
  6  7  1  0
  7  8  2  0
  8  9  1  0
  9 10  1  0
 10 11  1  0
 10 12  1  0
 12 13  2  0
 14 12  1  1
 14 15  1  0
 15 16  1  0
 16 17  2  0
 16 18  1  0
 18 19  1  0
 18 20  1  0
 20 21  2  0
 20 22  1  0
 22 23  1  0
  9 24  2  0
 24 25  1  0
  4 26  1  0
 26 27  1  0
 26 28  2  0
 25  6  2  0
 22 14  1  0
M  ISO  6   1   1   3   3  11   4  19   6  23   5  27   2
M  END
>  <symbol>  (190) 
Phe_4Sdihydroorotamido

>  <m_abbr>  (190) 
Phe_4Sdihydroorotamido

>  <m_name>  (190) 
(2S)-2-amino-3-{4-[(4S)-2,6-dioxo-1,3-diazinane-4-amido]phenyl}propanoic acid

>  <m_type>  (190) 
aa

>  <m_subtype>  (190) 
natural

>  <m_Rgroups>  (190) 
[H],[OH],[H],[H],[H],[H]

>  <m_chem_types>  (190) 
1:backbone_n,2:backbone_c,3:backbone_n_mod,4:amide_nh,5:urea_nh,6:urea_nh

>  <m_activation_policy>  (190) 
canonical-sites-v1

$$$$

     RDKit          2D

 21 21  0  0  0  0  0  0  0  0999 V2000
    5.1317    2.4282    0.0000 R   0  0  0  0  0  1  0  0  0  0  0  0
    3.9643    1.4862    0.0000 N   0  0  0  0  0  0  0  0  0  0  0  0
    2.5649    2.0261    0.0000 R   0  0  0  0  0  1  0  0  0  0  0  0
    4.1964    0.0043    0.0000 C   0  0  0  0  0  0  0  0  0  0  0  0
    3.0291   -0.9377    0.0000 C   0  0  0  0  0  0  0  0  0  0  0  0
    1.6297   -0.3978    0.0000 C   0  0  0  0  0  0  0  0  0  0  0  0
    0.4623   -1.3397    0.0000 C   0  0  0  0  0  0  0  0  0  0  0  0
   -0.9371   -0.7998    0.0000 C   0  0  0  0  0  0  0  0  0  0  0  0
   -2.1045   -1.7418    0.0000 N   0  0  0  0  0  0  0  0  0  0  0  0
   -1.8724   -3.2237    0.0000 R   0  0  0  0  0  1  0  0  0  0  0  0
   -3.5039   -1.2018    0.0000 C   0  0  0  0  0  0  0  0  0  0  0  0
   -4.6712   -2.1438    0.0000 O   0  0  0  0  0  0  0  0  0  0  0  0
   -3.7360    0.2801    0.0000 C   0  0  0  0  0  0  0  0  0  0  0  0
   -2.6735    1.3390    0.0000 N   0  0  0  0  0  0  0  0  0  0  0  0
   -3.3522    2.6766    0.0000 C   0  0  0  0  0  0  0  0  0  0  0  0
   -4.8342    2.4445    0.0000 C   0  0  0  0  0  0  0  0  0  0  0  0
   -5.0714    0.9634    0.0000 C   0  0  0  0  0  0  0  0  0  0  0  0
   -6.4090    0.2847    0.0000 C   0  0  0  0  0  0  0  0  0  0  0  0
    5.5959   -0.5357    0.0000 C   0  0  0  0  0  0  0  0  0  0  0  0
    6.7632    0.4063    0.0000 R   0  0  0  0  0  1  0  0  0  0  0  0
    5.8280   -2.0176    0.0000 O   0  0  0  0  0  0  0  0  0  0  0  0
  1  2  1  0
  2  3  1  0
  2  4  1  0
  4  5  1  6
  5  6  1  0
  6  7  1  0
  7  8  1  0
  8  9  1  0
  9 10  1  0
  9 11  1  0
 11 12  2  0
 13 11  1  1
 13 14  1  0
 14 15  2  0
 15 16  1  0
 16 17  1  0
 17 18  1  6
  4 19  1  0
 19 20  1  0
 19 21  2  0
 17 13  1  0
M  ISO  4   1   1   3   3  10   4  20   2
M  END
>  <symbol>  (191) 
Pyl

>  <m_abbr>  (191) 
Pyl

>  <m_name>  (191) 
Pyrrolysine

>  <m_type>  (191) 
aa

>  <m_subtype>  (191) 
natural

>  <m_Rgroups>  (191) 
[H],[OH],[H],[H]

>  <m_chem_types>  (191) 
1:backbone_n,2:backbone_c,3:backbone_n_mod,4:amide_nh

>  <m_activation_policy>  (191) 
canonical-sites-v1

$$$$

     RDKit          2D

 13 12  0  0  0  0  0  0  0  0999 V2000
   -3.7540   -0.5823    0.0000 R   0  0  0  0  0  1  0  0  0  0  0  0
   -2.3396   -1.0816    0.0000 N   0  0  0  0  0  0  0  0  0  0  0  0
   -2.0647   -2.5562    0.0000 R   0  0  0  0  0  1  0  0  0  0  0  0
   -1.2000   -0.1063    0.0000 C   0  0  0  0  0  0  0  0  0  0  0  0
    0.2145   -0.6056    0.0000 C   0  0  0  0  0  0  0  0  0  0  0  0
    1.3541    0.3698    0.0000 O   0  0  0  0  0  0  0  0  0  0  0  0
    2.7686   -0.1295    0.0000 P   0  0  0  0  0  0  0  0  0  0  0  0
    3.2679    1.2850    0.0000 R   0  0  0  0  0  1  0  0  0  0  0  0
    2.2693   -1.5440    0.0000 R   0  0  0  0  0  1  0  0  0  0  0  0
    4.1831   -0.6288    0.0000 O   0  0  0  0  0  0  0  0  0  0  0  0
   -1.4748    1.3683    0.0000 C   0  0  0  0  0  0  0  0  0  0  0  0
   -0.3352    2.3436    0.0000 R   0  0  0  0  0  1  0  0  0  0  0  0
   -2.8893    1.8676    0.0000 O   0  0  0  0  0  0  0  0  0  0  0  0
  1  2  1  0
  2  3  1  0
  2  4  1  0
  4  5  1  6
  5  6  1  0
  6  7  1  0
  7  8  1  0
  7  9  1  0
  7 10  2  0
  4 11  1  0
 11 12  1  0
 11 13  2  0
M  ISO  5   1   1   3   3   8   4   9   5  12   2
M  END
>  <symbol>  (1)
Ser_PO3H2

>  <m_abbr>  (1)
Ser_PO3H2

>  <m_name>  (1)
(2S)-2-amino-3-(phosphonooxy)propanoic acid

>  <m_type>  (1)
aa

>  <m_subtype>  (1)
natural

>  <m_Rgroups>  (1)
[H],[OH],[H],[OH],[OH]

>  <m_chem_types>  (1)
1:backbone_n,2:backbone_c,3:backbone_n_mod,4:phosphate_p,5:phosphate_p

>  <m_activation_policy>  (1)
canonical-sites-v1

$$$$

     RDKit          2D

 14 13  0  0  0  0  0  0  0  0999 V2000
   -2.9610   -1.9618    0.0000 R   0  0  0  0  0  1  0  0  0  0  0  0
   -1.5375   -1.4887    0.0000 N   0  0  0  0  0  0  0  0  0  0  0  0
   -0.4161   -2.4850    0.0000 R   0  0  0  0  0  1  0  0  0  0  0  0
   -1.2355   -0.0195    0.0000 C   0  0  0  0  0  0  0  0  0  0  0  0
   -2.3569    0.9768    0.0000 C   0  0  0  0  0  0  0  0  0  0  0  0
   -2.0548    2.4460    0.0000 R   0  0  0  0  0  1  0  0  0  0  0  0
   -3.7803    0.5037    0.0000 O   0  0  0  0  0  0  0  0  0  0  0  0
    0.1880    0.4536    0.0000 C   0  0  0  0  0  0  0  0  0  0  0  0
    0.4900    1.9229    0.0000 C   0  0  0  0  0  0  0  0  0  0  0  0
    1.3094   -0.5426    0.0000 O   0  0  0  0  0  0  0  0  0  0  0  0
    2.7328   -0.0696    0.0000 P   0  0  0  0  0  0  0  0  0  0  0  0
    3.2059   -1.4931    0.0000 R   0  0  0  0  0  1  0  0  0  0  0  0
    2.2598    1.3539    0.0000 R   0  0  0  0  0  1  0  0  0  0  0  0
    4.1563    0.4034    0.0000 O   0  0  0  0  0  0  0  0  0  0  0  0
  1  2  1  0
  2  3  1  0
  4  2  1  6
  4  5  1  0
  5  6  1  0
  5  7  2  0
  4  8  1  0
  8  9  1  1
  8 10  1  0
 10 11  1  0
 11 12  1  0
 11 13  1  0
 11 14  2  0
M  ISO  5   1   1   3   3   6   2  12   4  13   5
M  END
>  <symbol>  (1)
Thr_PO3H2

>  <m_abbr>  (1)
Thr_PO3H2

>  <m_name>  (1)
(2S,3R)-2-amino-3-(phosphonooxy)butanoic acid

>  <m_type>  (1)
aa

>  <m_subtype>  (1)
natural

>  <m_Rgroups>  (1)
[H],[OH],[H],[OH],[OH]

>  <m_chem_types>  (1)
1:backbone_n,2:backbone_c,3:backbone_n_mod,4:phosphate_p,5:phosphate_p

>  <m_activation_policy>  (1)
canonical-sites-v1

$$$$

     RDKit          2D

  9  9  0  0  0  0  0  0  0  0999 V2000
    0.5115   -2.3139    0.0000 R   0  0  0  0  0  1  0  0  0  0  0  0
    0.8624   -0.8555    0.0000 N   0  0  0  0  0  0  0  0  0  0  0  0
    2.2485   -0.2821    0.0000 C   0  0  0  0  0  0  0  0  0  0  0  0
    2.1314    1.2133    0.0000 S   0  0  0  0  0  0  0  0  0  0  0  0
    0.6730    1.5641    0.0000 C   0  0  0  0  0  0  0  0  0  0  0  0
   -0.1113    0.2855    0.0000 C   0  0  0  0  0  0  0  0  0  0  0  0
   -1.6067    0.1685    0.0000 C   0  0  0  0  0  0  0  0  0  0  0  0
   -2.4558    1.4051    0.0000 R   0  0  0  0  0  1  0  0  0  0  0  0
   -2.2531   -1.1851    0.0000 O   0  0  0  0  0  0  0  0  0  0  0  0
  1  2  1  0
  2  3  1  0
  3  4  1  0
  4  5  1  0
  5  6  1  0
  6  7  1  6
  7  8  1  0
  7  9  2  0
  6  2  1  0
M  ISO  2   1   1   8   2
M  END
>  <symbol>  (194) 
Thz

>  <m_abbr>  (194) 
Thz

>  <m_name>  (194) 
(4R)-1,3-thiazolidine-4-carboxylic acid

>  <m_type>  (194) 
aa

>  <m_subtype>  (194) 
natural

>  <m_Rgroups>  (194) 
[H],[OH]

>  <m_chem_types>  (194) 
1:backbone_n,2:backbone_c

>  <m_activation_policy>  (194) 
canonical-sites-v1

$$$$

     RDKit          2D

 18 19  0  0  0  0  0  0  0  0999 V2000
   -3.8349   -1.8005    0.0000 R   0  0  0  0  0  1  0  0  0  0  0  0
   -2.4851   -1.1463    0.0000 N   0  0  0  0  0  0  0  0  0  0  0  0
   -1.2436   -1.9882    0.0000 R   0  0  0  0  0  1  0  0  0  0  0  0
   -2.3767    0.3497    0.0000 C   0  0  0  0  0  0  0  0  0  0  0  0
   -1.0269    1.0039    0.0000 C   0  0  0  0  0  0  0  0  0  0  0  0
    0.2146    0.1620    0.0000 C   0  0  0  0  0  0  0  0  0  0  0  0
    0.2632   -1.3372    0.0000 C   0  0  0  0  0  0  0  0  0  0  0  0
    1.7040   -1.7543    0.0000 N   0  0  0  0  0  0  0  0  0  0  0  0
    2.2135   -3.1651    0.0000 C   0  0  0  0  0  0  0  0  0  0  0  0
    2.5459   -0.5128    0.0000 C   0  0  0  0  0  0  0  0  0  0  0  0
    4.0318   -0.3078    0.0000 C   0  0  0  0  0  0  0  0  0  0  0  0
    4.5972    1.0816    0.0000 C   0  0  0  0  0  0  0  0  0  0  0  0
    3.6767    2.2659    0.0000 C   0  0  0  0  0  0  0  0  0  0  0  0
    2.1908    2.0609    0.0000 C   0  0  0  0  0  0  0  0  0  0  0  0
    1.6254    0.6715    0.0000 C   0  0  0  0  0  0  0  0  0  0  0  0
   -3.6182    1.1916    0.0000 C   0  0  0  0  0  0  0  0  0  0  0  0
   -4.9680    0.5375    0.0000 R   0  0  0  0  0  1  0  0  0  0  0  0
   -3.5098    2.6877    0.0000 O   0  0  0  0  0  0  0  0  0  0  0  0
  1  2  1  0
  2  3  1  0
  2  4  1  0
  4  5  1  6
  5  6  1  0
  6  7  2  0
  7  8  1  0
  8  9  1  0
  8 10  1  0
 10 11  2  0
 11 12  1  0
 12 13  2  0
 13 14  1  0
 14 15  2  0
  4 16  1  0
 16 17  1  0
 16 18  2  0
 15  6  1  0
 15 10  1  0
M  ISO  3   1   1   3   3  17   2
M  END
>  <symbol>  (195) 
Trp_Me

>  <m_abbr>  (195) 
Trp_Me

>  <m_name>  (195) 
(2S)-2-amino-3-(1-methyl-1H-indol-3-yl)propanoic acid

>  <m_type>  (195) 
aa

>  <m_subtype>  (195) 
natural

>  <m_Rgroups>  (195) 
[H],[OH],[H]

>  <m_chem_types>  (195) 
1:backbone_n,2:backbone_c,3:backbone_n_mod

>  <m_activation_policy>  (195) 
canonical-sites-v1

$$$$

     RDKit          2D

 18 18  0  0  0  0  0  0  0  0999 V2000
   -4.7933    0.2013    0.0000 R   0  0  0  0  0  1  0  0  0  0  0  0
   -3.6319   -0.7481    0.0000 N   0  0  0  0  0  0  0  0  0  0  0  0
   -3.8735   -2.2285    0.0000 R   0  0  0  0  0  1  0  0  0  0  0  0
   -2.2291   -0.2170    0.0000 C   0  0  0  0  0  0  0  0  0  0  0  0
   -1.0678   -1.1664    0.0000 C   0  0  0  0  0  0  0  0  0  0  0  0
    0.3351   -0.6354    0.0000 C   0  0  0  0  0  0  0  0  0  0  0  0
    0.5766    0.8451    0.0000 C   0  0  0  0  0  0  0  0  0  0  0  0
   -0.1793    1.6352    0.0000 C   0  0  0  0  0  0  0  0  0  0  0  0
    1.9794    1.3761    0.0000 C   0  0  0  0  0  0  0  0  0  0  0  0
    3.1408    0.4267    0.0000 C   0  0  0  0  0  0  0  0  0  0  0  0
    4.5436    0.9578    0.0000 O   0  0  0  0  0  0  0  0  0  0  0  0
    5.7050    0.0084    0.0000 R   0  0  0  0  0  1  0  0  0  0  0  0
    2.8993   -1.0537    0.0000 C   0  0  0  0  0  0  0  0  0  0  0  0
    1.4964   -1.5847    0.0000 C   0  0  0  0  0  0  0  0  0  0  0  0
    1.2549   -3.0652    0.0000 C   0  0  0  0  0  0  0  0  0  0  0  0
   -1.9876    1.2634    0.0000 C   0  0  0  0  0  0  0  0  0  0  0  0
   -3.1489    2.2128    0.0000 R   0  0  0  0  0  1  0  0  0  0  0  0
   -1.0197    1.7723    0.0000 O   0  0  0  0  0  0  0  0  0  0  0  0
  1  2  1  0
  2  3  1  0
  2  4  1  0
  4  5  1  6
  5  6  1  0
  6  7  2  0
  7  8  1  0
  7  9  1  0
  9 10  2  0
 10 11  1  0
 11 12  1  0
 10 13  1  0
 13 14  2  0
 14 15  1  0
  4 16  1  0
 16 17  1  0
 16 18  2  0
 14  6  1  0
M  ISO  4   1   1   3   3  12   4  17   2
M  END
>  <symbol>  (196) 
Tyr_26diMe

>  <m_abbr>  (196) 
Tyr_26diMe

>  <m_name>  (196) 
(2S)-2-amino-3-(4-hydroxy-2,6-dimethylphenyl)propanoic acid

>  <m_type>  (196) 
aa

>  <m_subtype>  (196) 
natural

>  <m_Rgroups>  (196) 
[H],[OH],[H],[H]

>  <m_chem_types>  (196) 
1:backbone_n,2:backbone_c,3:backbone_n_mod,4:aryl_phenol_o

>  <m_activation_policy>  (196) 
canonical-sites-v1

$$$$

     RDKit          2D

 17 17  0  0  0  0  0  0  0  0999 V2000
   -3.4004    2.1682    0.0000 R   0  0  0  0  0  1  0  0  0  0  0  0
   -2.2177    1.2455    0.0000 N   0  0  0  0  0  0  0  0  0  0  0  0
   -0.8274    1.8085    0.0000 R   0  0  0  0  0  1  0  0  0  0  0  0
   -2.4254   -0.2400    0.0000 C   0  0  0  0  0  0  0  0  0  0  0  0
   -1.2428   -1.1627    0.0000 C   0  0  0  0  0  0  0  0  0  0  0  0
    0.1476   -0.5997    0.0000 C   0  0  0  0  0  0  0  0  0  0  0  0
    0.3553    0.8858    0.0000 C   0  0  0  0  0  0  0  0  0  0  0  0
    1.7457    1.4487    0.0000 C   0  0  0  0  0  0  0  0  0  0  0  0
    2.9284    0.5261    0.0000 C   0  0  0  0  0  0  0  0  0  0  0  0
    4.3187    1.0890    0.0000 O   0  0  0  0  0  0  0  0  0  0  0  0
    5.5014    0.1663    0.0000 R   0  0  0  0  0  1  0  0  0  0  0  0
    2.7207   -0.9595    0.0000 C   0  0  0  0  0  0  0  0  0  0  0  0
    3.9033   -1.8821    0.0000 I   0  0  0  0  0  0  0  0  0  0  0  0
    1.3303   -1.5224    0.0000 C   0  0  0  0  0  0  0  0  0  0  0  0
   -3.8158   -0.8029    0.0000 C   0  0  0  0  0  0  0  0  0  0  0  0
   -4.9985    0.1197    0.0000 R   0  0  0  0  0  1  0  0  0  0  0  0
   -4.0235   -2.2885    0.0000 O   0  0  0  0  0  0  0  0  0  0  0  0
  1  2  1  0
  2  3  1  0
  2  4  1  0
  4  5  1  1
  5  6  1  0
  6  7  1  0
  7  8  2  0
  8  9  1  0
  9 10  1  0
 10 11  1  0
  9 12  2  0
 12 13  1  0
 12 14  1  0
  4 15  1  0
 15 16  1  0
 15 17  2  0
 14  6  2  0
M  ISO  4   1   1   3   3  11   4  16   2
M  END
>  <symbol>  (197) 
Tyr_3I

>  <m_abbr>  (197) 
Tyr_3I

>  <m_name>  (197) 
(2S)-2-amino-3-(4-hydroxy-3-iodophenyl)propanoic acid

>  <m_type>  (197) 
aa

>  <m_subtype>  (197) 
natural

>  <m_Rgroups>  (197) 
[H],[OH],[H],[H]

>  <m_chem_types>  (197) 
1:backbone_n,2:backbone_c,3:backbone_n_mod,4:aryl_phenol_o

>  <m_activation_policy>  (197) 
canonical-sites-v1

$$$$

     RDKit          2D

 19 19  0  0  0  0  0  0  0  0999 V2000
   -3.9374    2.0837    0.0000 R   0  0  0  0  0  1  0  0  0  0  0  0
   -2.7078    1.2246    0.0000 N   0  0  0  0  0  0  0  0  0  0  0  0
   -1.3490    1.8599    0.0000 R   0  0  0  0  0  1  0  0  0  0  0  0
   -2.8370   -0.2698    0.0000 C   0  0  0  0  0  0  0  0  0  0  0  0
   -1.6074   -1.1289    0.0000 C   0  0  0  0  0  0  0  0  0  0  0  0
   -0.2485   -0.4936    0.0000 C   0  0  0  0  0  0  0  0  0  0  0  0
   -0.1194    1.0008    0.0000 C   0  0  0  0  0  0  0  0  0  0  0  0
    1.2394    1.6362    0.0000 C   0  0  0  0  0  0  0  0  0  0  0  0
    2.4691    0.7771    0.0000 C   0  0  0  0  0  0  0  0  0  0  0  0
    3.8279    1.4124    0.0000 O   0  0  0  0  0  0  0  0  0  0  0  0
    3.9571    2.9068    0.0000 R   0  0  0  0  0  1  0  0  0  0  0  0
    2.3399   -0.7173    0.0000 C   0  0  0  0  0  0  0  0  0  0  0  0
    3.5695   -1.5764    0.0000 N   0  0  0  0  0  0  0  0  0  0  0  0
    4.9283   -0.9411    0.0000 O   0  0  0  0  0  0  0  0  0  0  0  0
    3.4403   -3.0709    0.0000 O   0  0  0  0  0  0  0  0  0  0  0  0
    0.9811   -1.3527    0.0000 C   0  0  0  0  0  0  0  0  0  0  0  0
   -4.1958   -0.9052    0.0000 C   0  0  0  0  0  0  0  0  0  0  0  0
   -5.4254   -0.0461    0.0000 R   0  0  0  0  0  1  0  0  0  0  0  0
   -4.3250   -2.3996    0.0000 O   0  0  0  0  0  0  0  0  0  0  0  0
  1  2  1  0
  2  3  1  0
  2  4  1  0
  4  5  1  1
  5  6  1  0
  6  7  1  0
  7  8  2  0
  8  9  1  0
  9 10  1  0
 10 11  1  0
  9 12  2  0
 12 13  1  0
 13 14  2  0
 13 15  1  0
 12 16  1  0
  4 17  1  0
 17 18  1  0
 17 19  2  0
 16  6  2  0
M  CHG  2  13   1  15  -1
M  ISO  4   1   1   3   3  11   4  18   2
M  END
>  <symbol>  (198) 
Tyr_3NO2

>  <m_abbr>  (198) 
Tyr_3NO2

>  <m_name>  (198) 
(2S)-2-amino-3-(4-hydroxy-3-nitrophenyl)propanoic acid

>  <m_type>  (198) 
aa

>  <m_subtype>  (198) 
natural

>  <m_Rgroups>  (198) 
[H],[OH],[H],[H]

>  <m_chem_types>  (198) 
1:backbone_n,2:backbone_c,3:backbone_n_mod,4:aryl_phenol_o

>  <m_activation_policy>  (198) 
canonical-sites-v1

$$$$

     RDKit          2D

 23 24  0  0  0  0  0  0  0  0999 V2000
   -5.8448    1.7023    0.0000 R   0  0  0  0  0  1  0  0  0  0  0  0
   -4.5342    0.9727    0.0000 N   0  0  0  0  0  0  0  0  0  0  0  0
   -3.2470    1.7429    0.0000 R   0  0  0  0  0  1  0  0  0  0  0  0
   -4.5107   -0.5271    0.0000 C   0  0  0  0  0  0  0  0  0  0  0  0
   -3.2001   -1.2567    0.0000 C   0  0  0  0  0  0  0  0  0  0  0  0
   -1.9129   -0.4865    0.0000 C   0  0  0  0  0  0  0  0  0  0  0  0
   -1.9364    1.0133    0.0000 C   0  0  0  0  0  0  0  0  0  0  0  0
   -0.6492    1.7835    0.0000 C   0  0  0  0  0  0  0  0  0  0  0  0
    0.6614    1.0539    0.0000 C   0  0  0  0  0  0  0  0  0  0  0  0
    1.9485    1.8242    0.0000 O   0  0  0  0  0  0  0  0  0  0  0  0
    3.2591    1.0946    0.0000 C   0  0  0  0  0  0  0  0  0  0  0  0
    3.2826   -0.4053    0.0000 C   0  0  0  0  0  0  0  0  0  0  0  0
    4.5932   -1.1349    0.0000 C   0  0  0  0  0  0  0  0  0  0  0  0
    5.8803   -0.3647    0.0000 C   0  0  0  0  0  0  0  0  0  0  0  0
    7.1909   -1.0943    0.0000 O   0  0  0  0  0  0  0  0  0  0  0  0
    7.2144   -2.5941    0.0000 R   0  0  0  0  0  1  0  0  0  0  0  0
    5.8569    1.1352    0.0000 C   0  0  0  0  0  0  0  0  0  0  0  0
    4.5463    1.8648    0.0000 C   0  0  0  0  0  0  0  0  0  0  0  0
    0.6848   -0.4459    0.0000 C   0  0  0  0  0  0  0  0  0  0  0  0
   -0.6023   -1.2161    0.0000 C   0  0  0  0  0  0  0  0  0  0  0  0
   -5.7979   -1.2973    0.0000 C   0  0  0  0  0  0  0  0  0  0  0  0
   -7.1085   -0.5677    0.0000 R   0  0  0  0  0  1  0  0  0  0  0  0
   -5.7744   -2.7971    0.0000 O   0  0  0  0  0  0  0  0  0  0  0  0
  1  2  1  0
  2  3  1  0
  2  4  1  0
  4  5  1  1
  5  6  1  0
  6  7  1  0
  7  8  2  0
  8  9  1  0
  9 10  1  0
 10 11  1  0
 11 12  1  0
 12 13  2  0
 13 14  1  0
 14 15  1  0
 15 16  1  0
 14 17  2  0
 17 18  1  0
  9 19  2  0
 19 20  1  0
  4 21  1  0
 21 22  1  0
 21 23  2  0
 20  6  2  0
 18 11  2  0
M  ISO  4   1   1   3   3  16   4  22   2
M  END
>  <symbol>  (199) 
Tyr_Ph4OH

>  <m_abbr>  (199) 
Tyr_Ph4OH

>  <m_name>  (199) 
(2S)-2-amino-3-[4-(4-hydroxyphenoxy)phenyl]propanoic acid

>  <m_type>  (199) 
aa

>  <m_subtype>  (199) 
natural

>  <m_Rgroups>  (199) 
[H],[OH],[H],[H]

>  <m_chem_types>  (199) 
1:backbone_n,2:backbone_c,3:backbone_n_mod,4:aryl_phenol_o

>  <m_activation_policy>  (199) 
canonical-sites-v1

$$$$

     RDKit          2D

 19 19  0  0  0  0  0  0  0  0999 V2000
   -4.0746    2.1896    0.0000 R   0  0  0  0  0  1  0  0  0  0  0  0
   -2.9144    1.2389    0.0000 N   0  0  0  0  0  0  0  0  0  0  0  0
   -1.5109    1.7684    0.0000 R   0  0  0  0  0  1  0  0  0  0  0  0
   -3.1576   -0.2413    0.0000 C   0  0  0  0  0  0  0  0  0  0  0  0
   -1.9973   -1.1920    0.0000 C   0  0  0  0  0  0  0  0  0  0  0  0
   -0.5939   -0.6625    0.0000 C   0  0  0  0  0  0  0  0  0  0  0  0
   -0.3507    0.8177    0.0000 C   0  0  0  0  0  0  0  0  0  0  0  0
    1.0528    1.3471    0.0000 C   0  0  0  0  0  0  0  0  0  0  0  0
    2.2130    0.3964    0.0000 C   0  0  0  0  0  0  0  0  0  0  0  0
    3.6165    0.9259    0.0000 O   0  0  0  0  0  0  0  0  0  0  0  0
    4.7767   -0.0248    0.0000 S   0  0  0  0  0  0  0  0  0  0  0  0
    3.8261   -1.1850    0.0000 O   0  0  0  0  0  0  0  0  0  0  0  0
    5.7274    1.1355    0.0000 O   0  0  0  0  0  0  0  0  0  0  0  0
    5.9370   -0.9755    0.0000 O   0  0  0  0  0  0  0  0  0  0  0  0
    1.9698   -1.0837    0.0000 C   0  0  0  0  0  0  0  0  0  0  0  0
    0.5664   -1.6132    0.0000 C   0  0  0  0  0  0  0  0  0  0  0  0
   -4.5610   -0.7707    0.0000 C   0  0  0  0  0  0  0  0  0  0  0  0
   -5.7213    0.1800    0.0000 R   0  0  0  0  0  1  0  0  0  0  0  0
   -4.8042   -2.2509    0.0000 O   0  0  0  0  0  0  0  0  0  0  0  0
  1  2  1  0
  2  3  1  0
  2  4  1  0
  4  5  1  1
  5  6  1  0
  6  7  1  0
  7  8  2  0
  8  9  1  0
  9 10  1  0
 10 11  1  0
 11 12  2  0
 11 13  2  0
 11 14  1  0
  9 15  2  0
 15 16  1  0
  4 17  1  0
 17 18  1  0
 17 19  2  0
 16  6  2  0
M  ISO  3   1   1   3   3  18   2
M  END
>  <symbol>  (200) 
Tyr_SO3H

>  <m_abbr>  (200) 
Tyr_SO3H

>  <m_name>  (200) 
(2S)-2-amino-3-[4-(sulfooxy)phenyl]propanoic acid

>  <m_type>  (200) 
aa

>  <m_subtype>  (200) 
natural

>  <m_Rgroups>  (200) 
[H],[OH],[H]

>  <m_chem_types>  (200) 
1:backbone_n,2:backbone_c,3:backbone_n_mod

>  <m_activation_policy>  (200) 
canonical-sites-v1

$$$$

     RDKit          2D

 12 11  0  0  0  0  0  0  0  0999 V2000
   -2.2116   -1.9364    0.0000 R   0  0  0  0  0  1  0  0  0  0  0  0
   -0.7795   -1.4901    0.0000 N   0  0  0  0  0  0  0  0  0  0  0  0
    0.3230   -2.5072    0.0000 R   0  0  0  0  0  1  0  0  0  0  0  0
   -0.4499   -0.0268    0.0000 C   0  0  0  0  0  0  0  0  0  0  0  0
   -1.5524    0.9903    0.0000 C   0  0  0  0  0  0  0  0  0  0  0  0
   -1.2228    2.4536    0.0000 R   0  0  0  0  0  1  0  0  0  0  0  0
   -2.9845    0.5441    0.0000 O   0  0  0  0  0  0  0  0  0  0  0  0
    0.9822    0.4194    0.0000 C   0  0  0  0  0  0  0  0  0  0  0  0
    1.4284   -1.0126    0.0000 C   0  0  0  0  0  0  0  0  0  0  0  0
    0.5360    1.8515    0.0000 C   0  0  0  0  0  0  0  0  0  0  0  0
    2.4143    0.8657    0.0000 O   0  0  0  0  0  0  0  0  0  0  0  0
    3.5168   -0.1514    0.0000 R   0  0  0  0  0  1  0  0  0  0  0  0
  1  2  1  0
  2  3  1  0
  4  2  1  6
  4  5  1  0
  5  6  1  0
  5  7  2  0
  4  8  1  0
  8  9  1  0
  8 10  1  0
  8 11  1  0
 11 12  1  0
M  ISO  4   1   1   3   3   6   2  12   4
M  END
>  <symbol>  (201) 
Val_3OH

>  <m_abbr>  (201) 
Val_3OH

>  <m_name>  (201) 
(2S)-2-amino-3-hydroxy-3-methylbutanoic acid

>  <m_type>  (201) 
aa

>  <m_subtype>  (201) 
natural

>  <m_Rgroups>  (201) 
[H],[OH],[H],[H]

>  <m_chem_types>  (201) 
1:backbone_n,2:backbone_c,3:backbone_n_mod,4:hydroxyl

>  <m_activation_policy>  (201) 
canonical-sites-v1

$$$$

     RDKit          2D

 11 10  0  0  0  0  0  0  0  0999 V2000
   -2.0616   -1.9640    0.0000 R   0  0  0  0  0  1  0  0  0  0  0  0
   -0.6443   -1.4730    0.0000 N   0  0  0  0  0  0  0  0  0  0  0  0
    0.4896   -2.4550    0.0000 R   0  0  0  0  0  1  0  0  0  0  0  0
   -0.3608    0.0000    0.0000 C   0  0  0  0  0  0  0  0  0  0  0  0
   -1.4947    0.9820    0.0000 C   0  0  0  0  0  0  0  0  0  0  0  0
   -1.2112    2.4550    0.0000 R   0  0  0  0  0  1  0  0  0  0  0  0
   -2.9120    0.4910    0.0000 O   0  0  0  0  0  0  0  0  0  0  0  0
    1.0566    0.4910    0.0000 C   0  0  0  0  0  0  0  0  0  0  0  0
    1.3401    1.9640    0.0000 C   0  0  0  0  0  0  0  0  0  0  0  0
    2.1905   -0.4910    0.0000 C   0  0  0  0  0  0  0  0  0  0  0  0
    3.6078   -0.0000    0.0000 C   0  0  0  0  0  0  0  0  0  0  0  0
  1  2  1  0
  2  3  1  0
  2  4  1  0
  4  5  1  0
  5  6  1  0
  5  7  2  0
  4  8  1  6
  8  9  1  0
  8 10  1  0
 10 11  1  0
M  ISO  3   1   1   3   3   6   2
M  END
>  <symbol>  (202) 
xiIle

>  <m_abbr>  (202) 
xiIle

>  <m_name>  (202) 
(2S)-2-amino-3-methylpentanoic acid

>  <m_type>  (202) 
aa

>  <m_subtype>  (202) 
natural

>  <m_Rgroups>  (202) 
[H],[OH],[H]

>  <m_chem_types>  (202) 
1:backbone_n,2:backbone_c,3:backbone_n_mod

>  <m_activation_policy>  (202) 
canonical-sites-v1

$$$$

     RDKit          2D

 15 15  0  0  0  0  0  0  0  0999 V2000
    0.5437   -1.1087    0.0000 R   0  0  0  0  0  1  0  0  0  0  0  0
   -0.4385   -1.1709    0.0000 N   0  0  0  0  0  0  0  0  0  0  0  0
   -0.7599   -2.6361    0.0000 R   0  0  0  0  0  1  0  0  0  0  0  0
   -1.5467   -0.1600    0.0000 C   0  0  0  0  0  0  0  0  0  0  0  0
   -2.5576   -1.2682    0.0000 C   0  0  0  0  0  0  0  0  0  0  0  0
   -0.5357    0.9482    0.0000 C   0  0  0  0  0  0  0  0  0  0  0  0
    0.9294    0.6267    0.0000 C   0  0  0  0  0  0  0  0  0  0  0  0
    1.3836   -0.8028    0.0000 C   0  0  0  0  0  0  0  0  0  0  0  0
    2.8488   -1.1242    0.0000 C   0  0  0  0  0  0  0  0  0  0  0  0
    3.8597   -0.0161    0.0000 C   0  0  0  0  0  0  0  0  0  0  0  0
    3.4055    1.4135    0.0000 C   0  0  0  0  0  0  0  0  0  0  0  0
    1.9403    1.7349    0.0000 C   0  0  0  0  0  0  0  0  0  0  0  0
   -2.6548    0.8509    0.0000 C   0  0  0  0  0  0  0  0  0  0  0  0
   -2.3334    2.3161    0.0000 R   0  0  0  0  0  1  0  0  0  0  0  0
   -4.0844    0.3967    0.0000 O   0  0  0  0  0  0  0  0  0  0  0  0
  1  2  1  0
  2  3  1  0
  2  4  1  0
  4  5  1  1
  4  6  1  0
  6  7  1  0
  7  8  2  0
  8  9  1  0
  9 10  2  0
 10 11  1  0
 11 12  2  0
  4 13  1  0
 13 14  1  0
 13 15  2  0
 12  7  1  0
M  ISO  3   1   1   3   3  14   2
M  END
>  <symbol>  (203) 
aMePhe

>  <m_abbr>  (203) 
aMePhe

>  <m_name>  (203) 
(2S)-2-amino-2-methyl-3-phenylpropanoic acid

>  <m_type>  (203) 
aa

>  <m_subtype>  (203) 
natural

>  <m_Rgroups>  (203) 
[H],[OH],[H]

>  <m_chem_types>  (203) 
1:backbone_n,2:backbone_c,3:backbone_n_mod

>  <m_activation_policy>  (203) 
canonical-sites-v1

$$$$

     RDKit          2D

 10 10  0  0  0  0  0  0  0  0999 V2000
    1.8674   -1.9411    0.0000 R   0  0  0  0  0  1  0  0  0  0  0  0
    1.3645   -0.5279    0.0000 N   0  0  0  0  0  0  0  0  0  0  0  0
    2.2122    0.7096    0.0000 C   0  0  0  0  0  0  0  0  0  0  0  0
    1.2972    1.8982    0.0000 C   0  0  0  0  0  0  0  0  0  0  0  0
   -0.1160    1.3953    0.0000 C   0  0  0  0  0  0  0  0  0  0  0  0
   -0.0744   -0.1041    0.0000 C   0  0  0  0  0  0  0  0  0  0  0  0
   -0.3455   -1.5794    0.0000 C   0  0  0  0  0  0  0  0  0  0  0  0
   -1.5700    0.0113    0.0000 C   0  0  0  0  0  0  0  0  0  0  0  0
   -2.2178    1.3642    0.0000 R   0  0  0  0  0  1  0  0  0  0  0  0
   -2.4177   -1.2262    0.0000 O   0  0  0  0  0  0  0  0  0  0  0  0
  1  2  1  0
  2  3  1  0
  3  4  1  0
  4  5  1  0
  5  6  1  0
  6  7  1  1
  6  8  1  0
  8  9  1  0
  8 10  2  0
  6  2  1  0
M  ISO  2   1   1   9   2
M  END
>  <symbol>  (204) 
aMePro

>  <m_abbr>  (204) 
aMePro

>  <m_name>  (204) 
(2S)-2-methylpyrrolidine-2-carboxylic acid

>  <m_type>  (204) 
aa

>  <m_subtype>  (204) 
natural

>  <m_Rgroups>  (204) 
[H],[OH]

>  <m_chem_types>  (204) 
1:backbone_n,2:backbone_c

>  <m_activation_policy>  (204) 
canonical-sites-v1

$$$$

     RDKit          2D

 19 19  0  0  0  0  0  0  0  0999 V2000
   -5.0465   -0.9717    0.0000 R   0  0  0  0  0  1  0  0  0  0  0  0
   -3.5580   -1.1570    0.0000 N   0  0  0  0  0  0  0  0  0  0  0  0
   -2.9743   -2.5388    0.0000 R   0  0  0  0  0  1  0  0  0  0  0  0
   -2.6532    0.0393    0.0000 C   0  0  0  0  0  0  0  0  0  0  0  0
   -3.8496    0.9441    0.0000 C   0  0  0  0  0  0  0  0  0  0  0  0
   -1.4568   -0.8654    0.0000 C   0  0  0  0  0  0  0  0  0  0  0  0
   -0.0751   -0.2817    0.0000 C   0  0  0  0  0  0  0  0  0  0  0  0
    0.1103    1.2068    0.0000 C   0  0  0  0  0  0  0  0  0  0  0  0
    1.4921    1.7905    0.0000 C   0  0  0  0  0  0  0  0  0  0  0  0
    2.6885    0.8857    0.0000 C   0  0  0  0  0  0  0  0  0  0  0  0
    4.0702    1.4694    0.0000 O   0  0  0  0  0  0  0  0  0  0  0  0
    5.2666    0.5646    0.0000 R   0  0  0  0  0  1  0  0  0  0  0  0
    2.5031   -0.6028    0.0000 C   0  0  0  0  0  0  0  0  0  0  0  0
    3.6995   -1.5076    0.0000 O   0  0  0  0  0  0  0  0  0  0  0  0
    3.5141   -2.9961    0.0000 R   0  0  0  0  0  1  0  0  0  0  0  0
    1.1213   -1.1865    0.0000 C   0  0  0  0  0  0  0  0  0  0  0  0
   -1.7484    1.2357    0.0000 C   0  0  0  0  0  0  0  0  0  0  0  0
   -0.7714    1.3540    0.0000 R   0  0  0  0  0  1  0  0  0  0  0  0
   -2.3322    2.6175    0.0000 O   0  0  0  0  0  0  0  0  0  0  0  0
  1  2  1  0
  2  3  1  0
  2  4  1  0
  4  5  1  1
  4  6  1  0
  6  7  1  0
  7  8  1  0
  8  9  2  0
  9 10  1  0
 10 11  1  0
 11 12  1  0
 10 13  2  0
 13 14  1  0
 14 15  1  0
 13 16  1  0
  4 17  1  0
 17 18  1  0
 17 19  2  0
 16  7  2  0
M  ISO  5   1   1   3   3  12   4  15   5  18   2
M  END
>  <symbol>  (205) 
aMeTyr_3OH

>  <m_abbr>  (205) 
aMeTyr_3OH

>  <m_name>  (205) 
(2S)-2-amino-3-(3,4-dihydroxyphenyl)-2-methylpropanoic acid

>  <m_type>  (205) 
aa

>  <m_subtype>  (205) 
natural

>  <m_Rgroups>  (205) 
[H],[OH],[H],[H],[H]

>  <m_chem_types>  (205) 
1:backbone_n,2:backbone_c,3:backbone_n_mod,4:aryl_phenol_o,5:aryl_phenol_o

>  <m_activation_policy>  (205) 
canonical-sites-v1

$$$$

     RDKit          2D

 16 15  0  0  0  0  0  0  0  0999 V2000
   -3.3525    2.2030    0.0000 R   0  0  0  0  0  1  0  0  0  0  0  0
   -2.8566    0.7874    0.0000 N   0  0  0  0  0  0  0  0  0  0  0  0
   -3.8347   -0.3499    0.0000 R   0  0  0  0  0  1  0  0  0  0  0  0
   -1.3827    0.5090    0.0000 C   0  0  0  0  0  0  0  0  0  0  0  0
   -0.4046    1.6463    0.0000 C   0  0  0  0  0  0  0  0  0  0  0  0
    1.0693    1.3679    0.0000 R   0  0  0  0  0  1  0  0  0  0  0  0
   -0.9005    3.0620    0.0000 O   0  0  0  0  0  0  0  0  0  0  0  0
   -0.8868   -0.9066    0.0000 C   0  0  0  0  0  0  0  0  0  0  0  0
   -1.8648   -2.0439    0.0000 O   0  0  0  0  0  0  0  0  0  0  0  0
   -1.3689   -3.4596    0.0000 R   0  0  0  0  0  1  0  0  0  0  0  0
    0.5872   -1.1850    0.0000 C   0  0  0  0  0  0  0  0  0  0  0  0
    1.0831   -2.6007    0.0000 C   0  0  0  0  0  0  0  0  0  0  0  0
    1.5652   -0.0477    0.0000 C   0  0  0  0  0  0  0  0  0  0  0  0
    3.0391   -0.3261    0.0000 C   0  0  0  0  0  0  0  0  0  0  0  0
    4.0172    0.8112    0.0000 C   0  0  0  0  0  0  0  0  0  0  0  0
    5.4911    0.5328    0.0000 C   0  0  0  0  0  0  0  0  0  0  0  0
  1  2  1  0
  2  3  1  0
  4  2  1  6
  4  5  1  0
  5  6  1  0
  5  7  2  0
  4  8  1  0
  8  9  1  1
  9 10  1  0
  8 11  1  0
 11 12  1  1
 11 13  1  0
 13 14  1  0
 14 15  2  3
 15 16  1  0
M  ISO  4   1   1   3   3   6   2  10   4
M  END
>  <symbol>  (206) 
Bmt

>  <m_abbr>  (206) 
Bmt

>  <m_name>  (206) 
(2S,3R,4R)-2-amino-3-hydroxy-4-methyloct-6-enoic acid

>  <m_type>  (206) 
aa

>  <m_subtype>  (206) 
natural

>  <m_Rgroups>  (206) 
[H],[OH],[H],[H]

>  <m_chem_types>  (206) 
1:backbone_n,2:backbone_c,3:backbone_n_mod,4:hydroxyl

>  <m_activation_policy>  (206) 
canonical-sites-v1

$$$$

     RDKit          2D

 16 15  0  0  0  0  0  0  0  0999 V2000
   -3.8184   -1.0815    0.0000 R   0  0  0  0  0  1  0  0  0  0  0  0
   -2.3209   -1.1676    0.0000 N   0  0  0  0  0  0  0  0  0  0  0  0
   -1.6468   -2.5076    0.0000 R   0  0  0  0  0  1  0  0  0  0  0  0
   -1.4975    0.0862    0.0000 C   0  0  0  0  0  0  0  0  0  0  0  0
   -2.1717    1.4262    0.0000 C   0  0  0  0  0  0  0  0  0  0  0  0
   -3.6692    1.5123    0.0000 R   0  0  0  0  0  1  0  0  0  0  0  0
   -1.3483    2.6800    0.0000 O   0  0  0  0  0  0  0  0  0  0  0  0
    0.0000    0.0000    0.0000 C   0  0  0  0  0  0  0  0  0  0  0  0
    0.8234    1.2538    0.0000 O   0  0  0  0  0  0  0  0  0  0  0  0
    0.1493    2.5938    0.0000 R   0  0  0  0  0  1  0  0  0  0  0  0
    0.6741   -1.3400    0.0000 C   0  0  0  0  0  0  0  0  0  0  0  0
   -0.1493   -2.5938    0.0000 C   0  0  0  0  0  0  0  0  0  0  0  0
    2.1717   -1.4262    0.0000 C   0  0  0  0  0  0  0  0  0  0  0  0
    2.9950   -0.1723    0.0000 C   0  0  0  0  0  0  0  0  0  0  0  0
    4.4926   -0.2585    0.0000 C   0  0  0  0  0  0  0  0  0  0  0  0
    5.3160    0.9953    0.0000 C   0  0  0  0  0  0  0  0  0  0  0  0
  1  2  1  0
  2  3  1  0
  4  2  1  6
  4  5  1  0
  5  6  1  0
  5  7  2  0
  4  8  1  0
  8  9  1  6
  9 10  1  0
  8 11  1  0
 11 12  1  1
 11 13  1  0
 13 14  1  0
 14 15  2  0
 15 16  1  0
M  ISO  4   1   1   3   3   6   2  10   4
M  END
>  <symbol>  (207) 
Bmt_E

>  <m_abbr>  (207) 
Bmt_E

>  <m_name>  (207) 
(2S,3R,4R,6E)-2-amino-3-hydroxy-4-methyloct-6-enoic acid

>  <m_type>  (207) 
aa

>  <m_subtype>  (207) 
natural

>  <m_Rgroups>  (207) 
[H],[OH],[H],[H]

>  <m_chem_types>  (207) 
1:backbone_n,2:backbone_c,3:backbone_n_mod,4:hydroxyl

>  <m_activation_policy>  (207) 
canonical-sites-v1

$$$$

     RDKit          2D

 16 16  0  0  0  0  0  0  0  0999 V2000
   -3.7273    2.1932    0.0000 R   0  0  0  0  0  1  0  0  0  0  0  0
   -2.4953    1.3376    0.0000 N   0  0  0  0  0  0  0  0  0  0  0  0
   -1.1383    1.9767    0.0000 R   0  0  0  0  0  1  0  0  0  0  0  0
   -2.6203   -0.1572    0.0000 C   0  0  0  0  0  0  0  0  0  0  0  0
   -1.3883   -1.0129    0.0000 C   0  0  0  0  0  0  0  0  0  0  0  0
   -0.0312   -0.3737    0.0000 S   0  0  0  0  0  0  0  0  0  0  0  0
    1.2008   -1.2293    0.0000 C   0  0  0  0  0  0  0  0  0  0  0  0
    2.5578   -0.5902    0.0000 C   0  0  0  0  0  0  0  0  0  0  0  0
    2.6828    0.9046    0.0000 C   0  0  0  0  0  0  0  0  0  0  0  0
    4.0398    1.5438    0.0000 C   0  0  0  0  0  0  0  0  0  0  0  0
    5.2718    0.6882    0.0000 C   0  0  0  0  0  0  0  0  0  0  0  0
    5.1468   -0.8066    0.0000 C   0  0  0  0  0  0  0  0  0  0  0  0
    3.7898   -1.4458    0.0000 C   0  0  0  0  0  0  0  0  0  0  0  0
   -3.9773   -0.7964    0.0000 C   0  0  0  0  0  0  0  0  0  0  0  0
   -5.2093    0.0592    0.0000 R   0  0  0  0  0  1  0  0  0  0  0  0
   -4.1023   -2.2912    0.0000 O   0  0  0  0  0  0  0  0  0  0  0  0
  1  2  1  0
  2  3  1  0
  2  4  1  0
  4  5  1  1
  5  6  1  0
  6  7  1  0
  7  8  1  0
  8  9  2  0
  9 10  1  0
 10 11  2  0
 11 12  1  0
 12 13  2  0
  4 14  1  0
 14 15  1  0
 14 16  2  0
 13  8  1  0
M  ISO  3   1   1   3   3  15   2
M  END
>  <symbol>  (208) 
Cys_Bn

>  <m_abbr>  (208) 
Cys_Bn

>  <m_name>  (208) 
(2R)-2-amino-3-(benzylsulfanyl)propanoic acid

>  <m_type>  (208) 
aa

>  <m_subtype>  (208) 
natural

>  <m_Rgroups>  (208) 
[H],[OH],[H]

>  <m_chem_types>  (208) 
1:backbone_n,2:backbone_c,3:backbone_n_mod

>  <m_activation_policy>  (208) 
canonical-sites-v1

$$$$

     RDKit          2D

 15 14  0  0  0  0  0  0  0  0999 V2000
   -3.8971   -0.3290    0.0000 R   0  0  0  0  0  1  0  0  0  0  0  0
   -2.5981   -1.0790    0.0000 N   0  0  0  0  0  0  0  0  0  0  0  0
   -2.5981   -2.5790    0.0000 R   0  0  0  0  0  1  0  0  0  0  0  0
   -1.2990   -0.3290    0.0000 C   0  0  0  0  0  0  0  0  0  0  0  0
    0.0000   -1.0790    0.0000 C   0  0  0  0  0  0  0  0  0  0  0  0
    1.2990   -0.3290    0.0000 C   0  0  0  0  0  0  0  0  0  0  0  0
    2.5981   -1.0790    0.0000 C   0  0  0  0  0  0  0  0  0  0  0  0
    3.8971   -0.3290    0.0000 R   0  0  0  0  0  1  0  0  0  0  0  0
    2.5981   -2.5790    0.0000 O   0  0  0  0  0  0  0  0  0  0  0  0
    1.2990    1.1710    0.0000 C   0  0  0  0  0  0  0  0  0  0  0  0
    2.5981    1.9210    0.0000 R   0  0  0  0  0  1  0  0  0  0  0  0
    0.5131    1.7633    0.0000 O   0  0  0  0  0  0  0  0  0  0  0  0
   -1.2990    1.1710    0.0000 C   0  0  0  0  0  0  0  0  0  0  0  0
   -0.5131    1.7633    0.0000 R   0  0  0  0  0  1  0  0  0  0  0  0
   -2.5981    1.9210    0.0000 O   0  0  0  0  0  0  0  0  0  0  0  0
  1  2  1  0
  2  3  1  0
  2  4  1  0
  4  5  1  6
  5  6  1  0
  6  7  1  0
  7  8  1  0
  7  9  2  0
  6 10  1  0
 10 11  1  0
 10 12  2  0
  4 13  1  0
 13 14  1  0
 13 15  2  0
M  ISO  5   1   1   3   3   8   4  11   5  14   2
M  END
>  <symbol>
Gla

>  <m_abbr>
Gla

>  <m_name>
Carboxyglutamic acid

>  <m_type>
aa

>  <m_subtype>
natural

>  <m_Rgroups>
[H],[OH],[H],[OH],[OH]

>  <m_chem_types>
1:backbone_n,2:backbone_c,3:backbone_n_mod,4:carboxyl,5:carboxyl

>  <m_activation_policy>
canonical-sites-v1

$$$$

     RDKit          2D

 15 15  0  0  0  0  0  0  0  0999 V2000
   -3.9076   -1.7945    0.0000 R   0  0  0  0  0  1  0  0  0  0  0  0
   -2.4721   -1.3595    0.0000 N   0  0  0  0  0  0  0  0  0  0  0  0
   -1.3775   -2.3851    0.0000 R   0  0  0  0  0  1  0  0  0  0  0  0
   -2.1311    0.1012    0.0000 C   0  0  0  0  0  0  0  0  0  0  0  0
   -0.6956    0.5363    0.0000 C   0  0  0  0  0  0  0  0  0  0  0  0
    0.3990   -0.4894    0.0000 C   0  0  0  0  0  0  0  0  0  0  0  0
    1.8345   -0.0543    0.0000 C   0  0  0  0  0  0  0  0  0  0  0  0
    3.0302   -0.9599    0.0000 C   0  0  0  0  0  0  0  0  0  0  0  0
    4.2611   -0.1026    0.0000 N   0  0  0  0  0  0  0  0  0  0  0  0
    5.6781   -0.5944    0.0000 R   0  0  0  0  0  1  0  0  0  0  0  0
    3.8260    1.3329    0.0000 C   0  0  0  0  0  0  0  0  0  0  0  0
    2.3263    1.3628    0.0000 N   0  0  0  0  0  0  0  0  0  0  0  0
   -3.2256    1.1269    0.0000 C   0  0  0  0  0  0  0  0  0  0  0  0
   -4.6611    0.6919    0.0000 R   0  0  0  0  0  1  0  0  0  0  0  0
   -2.8846    2.5876    0.0000 O   0  0  0  0  0  0  0  0  0  0  0  0
  1  2  1  0
  2  3  1  0
  2  4  1  0
  4  5  1  6
  5  6  1  0
  6  7  1  0
  7  8  2  0
  8  9  1  0
  9 10  1  0
  9 11  1  0
 11 12  2  0
  4 13  1  0
 13 14  1  0
 13 15  2  0
 12  7  1  0
M  ISO  4   1   1   3   3  10   4  14   2
M  END
>  <symbol>  (210) 
hHis

>  <m_abbr>  (210) 
hHis

>  <m_name>  (210) 
(2S)-2-amino-4-(1H-imidazol-4-yl)butanoic acid

>  <m_type>  (210) 
aa

>  <m_subtype>  (210) 
natural

>  <m_Rgroups>  (210) 
[H],[OH],[H],[H]

>  <m_chem_types>  (210) 
1:backbone_n,2:backbone_c,3:backbone_n_mod,4:aromatic_nh

>  <m_activation_policy>  (210) 
canonical-sites-v1

$$$$

     RDKit          2D

 14 14  0  0  0  0  0  0  0  0999 V2000
   -2.5909    2.1279    0.0000 R   0  0  0  0  0  1  0  0  0  0  0  0
   -1.3801    1.2424    0.0000 N   0  0  0  0  0  0  0  0  0  0  0  0
   -0.0079    1.8482    0.0000 R   0  0  0  0  0  1  0  0  0  0  0  0
   -1.5416   -0.2489    0.0000 C   0  0  0  0  0  0  0  0  0  0  0  0
   -0.3309   -1.1344    0.0000 C   0  0  0  0  0  0  0  0  0  0  0  0
    1.0413   -0.5286    0.0000 C   0  0  0  0  0  0  0  0  0  0  0  0
    2.3380   -1.2827    0.0000 C   0  0  0  0  0  0  0  0  0  0  0  0
    3.4559   -0.2825    0.0000 N   0  0  0  0  0  0  0  0  0  0  0  0
    4.9221   -0.5990    0.0000 C   0  0  0  0  0  0  0  0  0  0  0  0
    2.8501    1.0897    0.0000 C   0  0  0  0  0  0  0  0  0  0  0  0
    1.3578    0.9376    0.0000 N   0  0  0  0  0  0  0  0  0  0  0  0
   -2.9139   -0.8547    0.0000 C   0  0  0  0  0  0  0  0  0  0  0  0
   -4.1246    0.0308    0.0000 R   0  0  0  0  0  1  0  0  0  0  0  0
   -3.0753   -2.3460    0.0000 O   0  0  0  0  0  0  0  0  0  0  0  0
  1  2  1  0
  2  3  1  0
  2  4  1  0
  4  5  1  1
  5  6  1  0
  6  7  2  0
  7  8  1  0
  8  9  1  0
  8 10  1  0
 10 11  2  0
  4 12  1  0
 12 13  1  0
 12 14  2  0
 11  6  1  0
M  ISO  3   1   1   3   3  13   2
M  END
>  <symbol>  (211) 
His_1Me

>  <m_abbr>  (211) 
His_1Me

>  <m_name>  (211) 
(2S)-2-amino-3-(1-methyl-1H-imidazol-4-yl)propanoic acid

>  <m_type>  (211) 
aa

>  <m_subtype>  (211) 
natural

>  <m_Rgroups>  (211) 
[H],[OH],[H]

>  <m_chem_types>  (211) 
1:backbone_n,2:backbone_c,3:backbone_n_mod

>  <m_activation_policy>  (211) 
canonical-sites-v1

$$$$

     RDKit          2D

 11 10  0  0  0  0  0  0  0  0999 V2000
   -3.0813    0.0866    0.0000 R   0  0  0  0  0  1  0  0  0  0  0  0
   -1.8784   -0.8095    0.0000 N   0  0  0  0  0  0  0  0  0  0  0  0
   -2.0531   -2.2993    0.0000 R   0  0  0  0  0  1  0  0  0  0  0  0
   -0.5009   -0.2159    0.0000 C   0  0  0  0  0  0  0  0  0  0  0  0
    0.7020   -1.1120    0.0000 C   0  0  0  0  0  0  0  0  0  0  0  0
    2.0795   -0.5184    0.0000 C   0  0  0  0  0  0  0  0  0  0  0  0
    3.2824   -1.4145    0.0000 R   0  0  0  0  0  1  0  0  0  0  0  0
    2.2541    0.9714    0.0000 C   0  0  0  0  0  0  0  0  0  0  0  0
   -0.3263    1.2739    0.0000 C   0  0  0  0  0  0  0  0  0  0  0  0
    1.0513    1.8676    0.0000 R   0  0  0  0  0  1  0  0  0  0  0  0
   -1.5291    2.1701    0.0000 O   0  0  0  0  0  0  0  0  0  0  0  0
  1  2  1  0
  2  3  1  0
  2  4  1  0
  4  5  1  6
  5  6  1  0
  6  7  1  0
  6  8  2  0
  4  9  1  0
  9 10  1  0
  9 11  2  0
M  ISO  4   1   1   3   3   7   4  10   2
M  END
>  <symbol>  (212) 
Gly_allyl

>  <m_abbr>  (212) 
Gly_allyl

>  <m_name>  (212) 
(2S)-2-aminopent-4-enoic acid

>  <m_type>  (212) 
aa

>  <m_subtype>  (212) 
natural

>  <m_Rgroups>  (212) 
[H],[OH],[H],[H]

>  <m_chem_types>  (212) 
1:backbone_n,2:backbone_c,3:backbone_n_mod,4:terminal_alkene

>  <m_activation_policy>  (212) 
canonical-sites-v1

$$$$

     RDKit          2D

 10 10  0  0  0  0  0  0  0  0999 V2000
    2.3598    1.2990    0.0000 R   0  0  0  0  0  1  0  0  0  0  0  0
    0.8598    1.2990    0.0000 N   0  0  0  0  0  0  0  0  0  0  0  0
    0.1098    2.5981    0.0000 R   0  0  0  0  0  1  0  0  0  0  0  0
    0.1098   -0.0000    0.0000 C   0  0  0  0  0  0  0  0  0  0  0  0
    0.8598   -1.2990    0.0000 C   0  0  0  0  0  0  0  0  0  0  0  0
    2.3598   -1.2990    0.0000 R   0  0  0  0  0  1  0  0  0  0  0  0
    0.1098   -2.5981    0.0000 O   0  0  0  0  0  0  0  0  0  0  0  0
   -1.3902   -0.0000    0.0000 C   0  0  0  0  0  0  0  0  0  0  0  0
   -2.6892    0.7500    0.0000 C   0  0  0  0  0  0  0  0  0  0  0  0
   -2.6892   -0.7500    0.0000 C   0  0  0  0  0  0  0  0  0  0  0  0
  1  2  1  0
  2  3  1  0
  4  2  1  6
  4  5  1  0
  5  6  1  0
  5  7  2  0
  4  8  1  0
  8  9  1  0
  9 10  1  0
 10  8  1  0
M  ISO  3   1   1   3   3   6   2
M  END
>  <symbol>  (213) 
Gly_cPr

>  <m_abbr>  (213) 
Gly_cPr

>  <m_name>  (213) 
(2S)-2-amino-2-cyclopropylacetic acid

>  <m_type>  (213) 
aa

>  <m_subtype>  (213) 
natural

>  <m_Rgroups>  (213) 
[H],[OH],[H]

>  <m_chem_types>  (213) 
1:backbone_n,2:backbone_c,3:backbone_n_mod

>  <m_activation_policy>  (213) 
canonical-sites-v1

$$$$

     RDKit          2D

 19 19  0  0  0  0  0  0  0  0999 V2000
   -4.0277   -1.8231    0.0000 R   0  0  0  0  0  1  0  0  0  0  0  0
   -2.6611   -1.2045    0.0000 N   0  0  0  0  0  0  0  0  0  0  0  0
   -1.4422   -2.0787    0.0000 R   0  0  0  0  0  1  0  0  0  0  0  0
   -2.5135    0.2882    0.0000 C   0  0  0  0  0  0  0  0  0  0  0  0
   -1.1470    0.9067    0.0000 C   0  0  0  0  0  0  0  0  0  0  0  0
    0.0719    0.0326    0.0000 C   0  0  0  0  0  0  0  0  0  0  0  0
   -0.0757   -1.4602    0.0000 O   0  0  0  0  0  0  0  0  0  0  0  0
    1.4385    0.6511    0.0000 C   0  0  0  0  0  0  0  0  0  0  0  0
    1.5860    2.1438    0.0000 C   0  0  0  0  0  0  0  0  0  0  0  0
    2.9526    2.7624    0.0000 C   0  0  0  0  0  0  0  0  0  0  0  0
    4.1715    1.8882    0.0000 C   0  0  0  0  0  0  0  0  0  0  0  0
    4.0239    0.3955    0.0000 C   0  0  0  0  0  0  0  0  0  0  0  0
    2.6574   -0.2231    0.0000 C   0  0  0  0  0  0  0  0  0  0  0  0
    2.5098   -1.7158    0.0000 N   0  0  0  0  0  0  0  0  0  0  0  0
    3.7287   -2.5900    0.0000 R   0  0  0  0  0  1  0  0  0  0  0  0
    1.1433   -2.3343    0.0000 R   0  0  0  0  0  1  0  0  0  0  0  0
   -3.7325    1.1624    0.0000 C   0  0  0  0  0  0  0  0  0  0  0  0
   -5.0990    0.5438    0.0000 R   0  0  0  0  0  1  0  0  0  0  0  0
   -3.5849    2.6551    0.0000 O   0  0  0  0  0  0  0  0  0  0  0  0
  1  2  1  0
  2  3  1  0
  2  4  1  0
  4  5  1  6
  5  6  1  0
  6  7  2  0
  6  8  1  0
  8  9  2  0
  9 10  1  0
 10 11  2  0
 11 12  1  0
 12 13  2  0
 13 14  1  0
 14 15  1  0
 14 16  1  0
  4 17  1  0
 17 18  1  0
 17 19  2  0
 13  8  1  0
M  ISO  5   1   1   3   3  15   4  16   5  18   2
M  END
>  <symbol>  (214) 
Asp_Ph2NH2

>  <m_abbr>  (214) 
Asp_Ph2NH2

>  <m_name>  (214) 
(2S)-2-amino-4-(2-aminophenyl)-4-oxobutanoic acid

>  <m_type>  (214) 
aa

>  <m_subtype>  (214) 
natural

>  <m_Rgroups>  (214) 
[H],[OH],[H],[H],[H]

>  <m_chem_types>  (214) 
1:backbone_n,2:backbone_c,3:backbone_n_mod,4:amine_primary,5:amine_primary

>  <m_activation_policy>  (214) 
canonical-sites-v1

$$$$

     RDKit          2D

  7  7  0  0  0  0  0  0  0  0999 V2000
    2.6953   -0.9209    0.0000 R   0  0  0  0  0  1  0  0  0  0  0  0
    1.5597    0.0591    0.0000 N   0  0  0  0  0  0  0  0  0  0  0  0
    1.0662    1.4756    0.0000 C   0  0  0  0  0  0  0  0  0  0  0  0
    0.0862    0.3400    0.0000 C   0  0  0  0  0  0  0  0  0  0  0  0
   -1.3303   -0.1535    0.0000 C   0  0  0  0  0  0  0  0  0  0  0  0
   -2.4659    0.8265    0.0000 R   0  0  0  0  0  1  0  0  0  0  0  0
   -1.6112   -1.6269    0.0000 O   0  0  0  0  0  0  0  0  0  0  0  0
  1  2  1  0
  2  3  1  0
  3  4  1  0
  4  5  1  6
  5  6  1  0
  5  7  2  0
  4  2  1  0
M  ISO  2   1   1   6   2
M  END
>  <symbol>  (215) 
Azi

>  <m_abbr>  (215) 
Azi

>  <m_name>  (215) 
(2S)-aziridine-2-carboxylic acid

>  <m_type>  (215) 
aa

>  <m_subtype>  (215) 
natural

>  <m_Rgroups>  (215) 
[H],[OH]

>  <m_chem_types>  (215) 
1:backbone_n,2:backbone_c

>  <m_activation_policy>  (215) 
canonical-sites-v1

$$$$

     RDKit          2D

 12 12  0  0  0  0  0  0  0  0999 V2000
    1.0825   -3.0000    0.0000 R   0  0  0  0  0  1  0  0  0  0  0  0
    1.0825   -1.5000    0.0000 N   0  0  0  0  0  0  0  0  0  0  0  0
    2.3816   -0.7500    0.0000 R   0  0  0  0  0  1  0  0  0  0  0  0
   -0.2165   -0.7500    0.0000 C   0  0  0  0  0  0  0  0  0  0  0  0
   -1.5155   -1.5000    0.0000 C   0  0  0  0  0  0  0  0  0  0  0  0
   -2.8146   -0.7500    0.0000 C   0  0  0  0  0  0  0  0  0  0  0  0
   -2.8146    0.7500    0.0000 C   0  0  0  0  0  0  0  0  0  0  0  0
   -1.5155    1.5000    0.0000 C   0  0  0  0  0  0  0  0  0  0  0  0
   -0.2165    0.7500    0.0000 C   0  0  0  0  0  0  0  0  0  0  0  0
    1.0825    1.5000    0.0000 C   0  0  0  0  0  0  0  0  0  0  0  0
    2.3816    0.7500    0.0000 R   0  0  0  0  0  1  0  0  0  0  0  0
    1.0825    3.0000    0.0000 O   0  0  0  0  0  0  0  0  0  0  0  0
  1  2  1  0
  2  3  1  0
  2  4  1  0
  4  5  2  0
  5  6  1  0
  6  7  2  0
  7  8  1  0
  8  9  2  0
  9 10  1  0
 10 11  1  0
 10 12  2  0
  9  4  1  0
M  ISO  3   1   1   3   3  11   2
M  END
>  <symbol>  (216) 
2Abz

>  <m_abbr>  (216) 
2Abz

>  <m_name>  (216) 
2-Aminobenzoic acid

>  <m_type>  (216) 
aa

>  <m_subtype>  (216) 
natural

>  <m_Rgroups>  (216) 
[H],[OH],[H]

>  <m_chem_types>  (216) 
1:backbone_n,2:backbone_c,3:backbone_n_mod

>  <m_activation_policy>  (216) 
canonical-sites-v1

$$$$

     RDKit          2D

 12 12  0  0  0  0  0  0  0  0999 V2000
   -3.8971    0.1250    0.0000 R   0  0  0  0  0  1  0  0  0  0  0  0
   -2.5981   -0.6250    0.0000 N   0  0  0  0  0  0  0  0  0  0  0  0
   -2.5981   -2.1250    0.0000 R   0  0  0  0  0  1  0  0  0  0  0  0
   -1.2990    0.1250    0.0000 C   0  0  0  0  0  0  0  0  0  0  0  0
   -1.2990    1.6250    0.0000 C   0  0  0  0  0  0  0  0  0  0  0  0
    0.0000    2.3750    0.0000 C   0  0  0  0  0  0  0  0  0  0  0  0
    1.2990    1.6250    0.0000 C   0  0  0  0  0  0  0  0  0  0  0  0
    1.2990    0.1250    0.0000 C   0  0  0  0  0  0  0  0  0  0  0  0
    2.5981   -0.6250    0.0000 C   0  0  0  0  0  0  0  0  0  0  0  0
    2.5981   -2.1250    0.0000 R   0  0  0  0  0  1  0  0  0  0  0  0
    3.8971    0.1250    0.0000 O   0  0  0  0  0  0  0  0  0  0  0  0
   -0.0000   -0.6250    0.0000 C   0  0  0  0  0  0  0  0  0  0  0  0
  1  2  1  0
  2  3  1  0
  2  4  1  0
  4  5  2  0
  5  6  1  0
  6  7  2  0
  7  8  1  0
  8  9  1  0
  9 10  1  0
  9 11  2  0
  8 12  2  0
 12  4  1  0
M  ISO  3   1   1   3   3  10   2
M  END
>  <symbol>  (217) 
3Abz

>  <m_abbr>  (217) 
3Abz

>  <m_name>  (217) 
3-Aminobenzoic acid

>  <m_type>  (217) 
aa

>  <m_subtype>  (217) 
natural

>  <m_Rgroups>  (217) 
[H],[OH],[H]

>  <m_chem_types>  (217) 
1:backbone_n,2:backbone_c,3:backbone_n_mod

>  <m_activation_policy>  (217) 
canonical-sites-v1

$$$$

     RDKit          2D

 12 12  0  0  0  0  0  0  0  0999 V2000
    3.7500   -1.2990    0.0000 R   0  0  0  0  0  1  0  0  0  0  0  0
    3.0000    0.0000    0.0000 N   0  0  0  0  0  0  0  0  0  0  0  0
    3.7500    1.2990    0.0000 R   0  0  0  0  0  1  0  0  0  0  0  0
    1.5000   -0.0000    0.0000 C   0  0  0  0  0  0  0  0  0  0  0  0
    0.7500   -1.2990    0.0000 C   0  0  0  0  0  0  0  0  0  0  0  0
   -0.7500   -1.2990    0.0000 C   0  0  0  0  0  0  0  0  0  0  0  0
   -1.5000    0.0000    0.0000 C   0  0  0  0  0  0  0  0  0  0  0  0
   -3.0000    0.0000    0.0000 C   0  0  0  0  0  0  0  0  0  0  0  0
   -3.7500    1.2990    0.0000 R   0  0  0  0  0  1  0  0  0  0  0  0
   -3.7500   -1.2990    0.0000 O   0  0  0  0  0  0  0  0  0  0  0  0
   -0.7500    1.2990    0.0000 C   0  0  0  0  0  0  0  0  0  0  0  0
    0.7500    1.2990    0.0000 C   0  0  0  0  0  0  0  0  0  0  0  0
  1  2  1  0
  2  3  1  0
  2  4  1  0
  4  5  1  0
  5  6  2  0
  6  7  1  0
  7  8  1  0
  8  9  1  0
  8 10  2  0
  7 11  2  0
 11 12  1  0
 12  4  2  0
M  ISO  3   1   1   3   3   9   2
M  END
>  <symbol>  (218) 
4Abz

>  <m_abbr>  (218) 
4Abz

>  <m_name>  (218) 
4-Aminobenzoic acid

>  <m_type>  (218) 
aa

>  <m_subtype>  (218) 
natural

>  <m_Rgroups>  (218) 
[H],[OH],[H]

>  <m_chem_types>  (218) 
1:backbone_n,2:backbone_c,3:backbone_n_mod

>  <m_activation_policy>  (218) 
canonical-sites-v1

$$$$

     RDKit          2D

  9  9  0  0  0  0  0  0  0  0999 V2000
   -2.5586    0.1172    0.0000 R   0  0  0  0  0  1  0  0  0  0  0  0
   -1.1491   -0.3958    0.0000 N   0  0  0  0  0  0  0  0  0  0  0  0
   -0.8886   -1.8730    0.0000 R   0  0  0  0  0  1  0  0  0  0  0  0
   -0.0000    0.5684    0.0000 C   0  0  0  0  0  0  0  0  0  0  0  0
    1.1491   -0.3958    0.0000 C   0  0  0  0  0  0  0  0  0  0  0  0
    0.8886   -1.8730    0.0000 R   0  0  0  0  0  1  0  0  0  0  0  0
    2.5586    0.1172    0.0000 O   0  0  0  0  0  0  0  0  0  0  0  0
    0.7500    1.8674    0.0000 C   0  0  0  0  0  0  0  0  0  0  0  0
   -0.7500    1.8674    0.0000 C   0  0  0  0  0  0  0  0  0  0  0  0
  1  2  1  0
  2  3  1  0
  2  4  1  0
  4  5  1  0
  5  6  1  0
  5  7  2  0
  4  8  1  0
  8  9  1  0
  9  4  1  0
M  ISO  3   1   1   3   3   6   2
M  END
>  <symbol>  (219) 
Ac3c

>  <m_abbr>  (219) 
Ac3c

>  <m_name>  (219) 
1-aminocyclopropane-1-carboxylic acid

>  <m_type>  (219) 
aa

>  <m_subtype>  (219) 
natural

>  <m_Rgroups>  (219) 
[H],[OH],[H]

>  <m_chem_types>  (219) 
1:backbone_n,2:backbone_c,3:backbone_n_mod

>  <m_activation_policy>  (219) 
canonical-sites-v1

$$$$

     RDKit          2D

 12 12  0  0  0  0  0  0  0  0999 V2000
    2.5859   -0.6268    0.0000 R   0  0  0  0  0  1  0  0  0  0  0  0
    1.1244   -0.9642    0.0000 N   0  0  0  0  0  0  0  0  0  0  0  0
    0.8639   -2.4414    0.0000 R   0  0  0  0  0  1  0  0  0  0  0  0
   -0.0247   -0.0000    0.0000 C   0  0  0  0  0  0  0  0  0  0  0  0
    1.1244    0.9642    0.0000 C   0  0  0  0  0  0  0  0  0  0  0  0
    0.8639    2.4414    0.0000 R   0  0  0  0  0  1  0  0  0  0  0  0
    2.5859    0.6268    0.0000 O   0  0  0  0  0  0  0  0  0  0  0  0
   -0.7747   -1.2990    0.0000 C   0  0  0  0  0  0  0  0  0  0  0  0
   -2.2747   -1.2990    0.0000 C   0  0  0  0  0  0  0  0  0  0  0  0
   -3.0247   -0.0000    0.0000 C   0  0  0  0  0  0  0  0  0  0  0  0
   -2.2747    1.2990    0.0000 C   0  0  0  0  0  0  0  0  0  0  0  0
   -0.7747    1.2990    0.0000 C   0  0  0  0  0  0  0  0  0  0  0  0
  1  2  1  0
  2  3  1  0
  2  4  1  0
  4  5  1  0
  5  6  1  0
  5  7  2  0
  4  8  1  0
  8  9  1  0
  9 10  1  0
 10 11  1  0
 11 12  1  0
 12  4  1  0
M  ISO  3   1   1   3   3   6   2
M  END
>  <symbol>  (220) 
Ac6c

>  <m_abbr>  (220) 
Ac6c

>  <m_name>  (220) 
1-aminocyclohexane-1-carboxylic acid

>  <m_type>  (220) 
aa

>  <m_subtype>  (220) 
natural

>  <m_Rgroups>  (220) 
[H],[OH],[H]

>  <m_chem_types>  (220) 
1:backbone_n,2:backbone_c,3:backbone_n_mod

>  <m_activation_policy>  (220) 
canonical-sites-v1

$$$$

     RDKit          2D

  8  7  0  0  0  0  0  0  0  0999 V2000
   -3.1182    0.9820    0.0000 R   0  0  0  0  0  1  0  0  0  0  0  0
   -1.9843    0.0000    0.0000 N   0  0  0  0  0  0  0  0  0  0  0  0
   -2.2678   -1.4730    0.0000 R   0  0  0  0  0  1  0  0  0  0  0  0
   -0.5669    0.4910    0.0000 C   0  0  0  0  0  0  0  0  0  0  0  0
    0.5669   -0.4910    0.0000 C   0  0  0  0  0  0  0  0  0  0  0  0
    1.9843    0.0000    0.0000 C   0  0  0  0  0  0  0  0  0  0  0  0
    3.1182   -0.9820    0.0000 R   0  0  0  0  0  1  0  0  0  0  0  0
    2.2678    1.4730    0.0000 O   0  0  0  0  0  0  0  0  0  0  0  0
  1  2  1  0
  2  3  1  0
  2  4  1  0
  4  5  1  0
  5  6  1  0
  6  7  1  0
  6  8  2  0
M  ISO  3   1   1   3   3   7   2
M  END
>  <symbol>  (221) 
bAla

>  <m_abbr>  (221) 
bAla

>  <m_name>  (221) 
3-aminopropanoic acid

>  <m_type>  (221) 
aa

>  <m_subtype>  (221) 
natural

>  <m_Rgroups>  (221) 
[H],[OH],[H]

>  <m_chem_types>  (221) 
1:backbone_n,2:backbone_c,3:backbone_n_mod

>  <m_activation_policy>  (221) 
canonical-sites-v1

$$$$

     RDKit          2D

 16 15  0  0  0  0  0  0  0  0999 V2000
   -3.3525    2.2030    0.0000 R   0  0  0  0  0  1  0  0  0  0  0  0
   -2.8566    0.7874    0.0000 N   0  0  0  0  0  0  0  0  0  0  0  0
   -3.8347   -0.3499    0.0000 R   0  0  0  0  0  1  0  0  0  0  0  0
   -1.3827    0.5090    0.0000 C   0  0  0  0  0  0  0  0  0  0  0  0
   -0.4046    1.6463    0.0000 C   0  0  0  0  0  0  0  0  0  0  0  0
    1.0693    1.3679    0.0000 R   0  0  0  0  0  1  0  0  0  0  0  0
   -0.9005    3.0620    0.0000 O   0  0  0  0  0  0  0  0  0  0  0  0
   -0.8868   -0.9066    0.0000 C   0  0  0  0  0  0  0  0  0  0  0  0
   -1.8648   -2.0439    0.0000 O   0  0  0  0  0  0  0  0  0  0  0  0
   -1.3689   -3.4596    0.0000 R   0  0  0  0  0  1  0  0  0  0  0  0
    0.5872   -1.1850    0.0000 C   0  0  0  0  0  0  0  0  0  0  0  0
    1.0831   -2.6007    0.0000 C   0  0  0  0  0  0  0  0  0  0  0  0
    1.5652   -0.0477    0.0000 C   0  0  0  0  0  0  0  0  0  0  0  0
    3.0391   -0.3261    0.0000 C   0  0  0  0  0  0  0  0  0  0  0  0
    4.0172    0.8112    0.0000 C   0  0  0  0  0  0  0  0  0  0  0  0
    5.4911    0.5328    0.0000 C   0  0  0  0  0  0  0  0  0  0  0  0
  1  2  1  0
  2  3  1  0
  4  2  1  1
  4  5  1  0
  5  6  1  0
  5  7  2  0
  4  8  1  0
  8  9  1  6
  9 10  1  0
  8 11  1  0
 11 12  1  6
 11 13  1  0
 13 14  1  0
 14 15  2  3
 15 16  1  0
M  ISO  4   1   1   3   3   6   2  10   4
M  END
>  <symbol>  (222) 
D_Bmt

>  <m_abbr>  (222) 
D_Bmt

>  <m_name>  (222) 
(2R,3S,4S)-2-amino-3-hydroxy-4-methyloct-6-enoic acid

>  <m_type>  (222) 
aa

>  <m_subtype>  (222) 
natural

>  <m_Rgroups>  (222) 
[H],[OH],[H],[H]

>  <m_chem_types>  (222) 
1:backbone_n,2:backbone_c,3:backbone_n_mod,4:hydroxyl

>  <m_activation_policy>  (222) 
canonical-sites-v1

$$$$

     RDKit          2D

 16 15  0  0  0  0  0  0  0  0999 V2000
   -3.8184   -1.0815    0.0000 R   0  0  0  0  0  1  0  0  0  0  0  0
   -2.3209   -1.1676    0.0000 N   0  0  0  0  0  0  0  0  0  0  0  0
   -1.6468   -2.5076    0.0000 R   0  0  0  0  0  1  0  0  0  0  0  0
   -1.4975    0.0862    0.0000 C   0  0  0  0  0  0  0  0  0  0  0  0
   -2.1717    1.4262    0.0000 C   0  0  0  0  0  0  0  0  0  0  0  0
   -3.6692    1.5123    0.0000 R   0  0  0  0  0  1  0  0  0  0  0  0
   -1.3483    2.6800    0.0000 O   0  0  0  0  0  0  0  0  0  0  0  0
    0.0000    0.0000    0.0000 C   0  0  0  0  0  0  0  0  0  0  0  0
    0.8234    1.2538    0.0000 O   0  0  0  0  0  0  0  0  0  0  0  0
    0.1493    2.5938    0.0000 R   0  0  0  0  0  1  0  0  0  0  0  0
    0.6741   -1.3400    0.0000 C   0  0  0  0  0  0  0  0  0  0  0  0
   -0.1493   -2.5938    0.0000 C   0  0  0  0  0  0  0  0  0  0  0  0
    2.1717   -1.4262    0.0000 C   0  0  0  0  0  0  0  0  0  0  0  0
    2.9950   -0.1723    0.0000 C   0  0  0  0  0  0  0  0  0  0  0  0
    4.4926   -0.2585    0.0000 C   0  0  0  0  0  0  0  0  0  0  0  0
    5.3160    0.9953    0.0000 C   0  0  0  0  0  0  0  0  0  0  0  0
  1  2  1  0
  2  3  1  0
  4  2  1  1
  4  5  1  0
  5  6  1  0
  5  7  2  0
  4  8  1  0
  8  9  1  1
  9 10  1  0
  8 11  1  0
 11 12  1  6
 11 13  1  0
 13 14  1  0
 14 15  2  0
 15 16  1  0
M  ISO  4   1   1   3   3   6   2  10   4
M  END
>  <symbol>  (223) 
D_Bmt_E

>  <m_abbr>  (223) 
D_Bmt_E

>  <m_name>  (223) 
(2R,3S,4S,6E)-2-amino-3-hydroxy-4-methyloct-6-enoic acid

>  <m_type>  (223) 
aa

>  <m_subtype>  (223) 
natural

>  <m_Rgroups>  (223) 
[H],[OH],[H],[H]

>  <m_chem_types>  (223) 
1:backbone_n,2:backbone_c,3:backbone_n_mod,4:hydroxyl

>  <m_activation_policy>  (223) 
canonical-sites-v1

$$$$

     RDKit          2D

 15 15  0  0  0  0  0  0  0  0999 V2000
   -2.5933    2.2771    0.0000 R   0  0  0  0  0  1  0  0  0  0  0  0
   -1.4913    1.2594    0.0000 N   0  0  0  0  0  0  0  0  0  0  0  0
   -0.0590    1.7049    0.0000 R   0  0  0  0  0  1  0  0  0  0  0  0
   -1.8217   -0.2038    0.0000 C   0  0  0  0  0  0  0  0  0  0  0  0
   -0.7197   -1.2215    0.0000 C   0  0  0  0  0  0  0  0  0  0  0  0
    0.7126   -0.7760    0.0000 C   0  0  0  0  0  0  0  0  0  0  0  0
    1.0430    0.6872    0.0000 C   0  0  0  0  0  0  0  0  0  0  0  0
    2.4753    1.1326    0.0000 C   0  0  0  0  0  0  0  0  0  0  0  0
    3.5773    0.1149    0.0000 C   0  0  0  0  0  0  0  0  0  0  0  0
    5.0096    0.5604    0.0000 F   0  0  0  0  0  0  0  0  0  0  0  0
    3.2469   -1.3482    0.0000 C   0  0  0  0  0  0  0  0  0  0  0  0
    1.8146   -1.7937    0.0000 C   0  0  0  0  0  0  0  0  0  0  0  0
   -3.2540   -0.6493    0.0000 C   0  0  0  0  0  0  0  0  0  0  0  0
   -4.3559    0.3684    0.0000 R   0  0  0  0  0  1  0  0  0  0  0  0
   -3.5844   -2.1124    0.0000 O   0  0  0  0  0  0  0  0  0  0  0  0
  1  2  1  0
  2  3  1  0
  2  4  1  0
  4  5  1  6
  5  6  1  0
  6  7  1  0
  7  8  2  0
  8  9  1  0
  9 10  1  0
  9 11  2  0
 11 12  1  0
  4 13  1  0
 13 14  1  0
 13 15  2  0
 12  6  2  0
M  ISO  3   1   1   3   3  14   2
M  END
>  <symbol>  (224) 
D_Phe_4F

>  <m_abbr>  (224) 
D_Phe_4F

>  <m_name>  (224) 
(2R)-2-amino-3-(4-fluorophenyl)propanoic acid

>  <m_type>  (224) 
aa

>  <m_subtype>  (224) 
natural

>  <m_Rgroups>  (224) 
[H],[OH],[H]

>  <m_chem_types>  (224) 
1:backbone_n,2:backbone_c,3:backbone_n_mod

>  <m_activation_policy>  (224) 
canonical-sites-v1

$$$$

     RDKit          2D

 19 20  0  0  0  0  0  0  0  0999 V2000
   -2.7738    2.1570    0.0000 R   0  0  0  0  0  1  0  0  0  0  0  0
   -1.7359    1.0741    0.0000 N   0  0  0  0  0  0  0  0  0  0  0  0
   -0.5416    1.7035    0.0000 R   0  0  0  0  0  1  0  0  0  0  0  0
   -2.1547   -0.3663    0.0000 C   0  0  0  0  0  0  0  0  0  0  0  0
   -1.1167   -1.4491    0.0000 C   0  0  0  0  0  0  0  0  0  0  0  0
    0.3400   -1.0917    0.0000 C   0  0  0  0  0  0  0  0  0  0  0  0
    1.4855   -2.0601    0.0000 C   0  0  0  0  0  0  0  0  0  0  0  0
    1.3753   -3.5561    0.0000 C   0  0  0  0  0  0  0  0  0  0  0  0
    2.7605   -1.2700    0.0000 N   0  0  0  0  0  0  0  0  0  0  0  0
    4.1492   -1.8371    0.0000 R   0  0  0  0  0  1  0  0  0  0  0  0
    2.4031    0.1868    0.0000 C   0  0  0  0  0  0  0  0  0  0  0  0
    3.2465    1.4272    0.0000 C   0  0  0  0  0  0  0  0  0  0  0  0
    2.5940    2.7778    0.0000 C   0  0  0  0  0  0  0  0  0  0  0  0
    1.0980    2.8880    0.0000 C   0  0  0  0  0  0  0  0  0  0  0  0
    0.2546    1.6476    0.0000 C   0  0  0  0  0  0  0  0  0  0  0  0
    0.9071    0.2970    0.0000 C   0  0  0  0  0  0  0  0  0  0  0  0
   -3.6115   -0.7237    0.0000 C   0  0  0  0  0  0  0  0  0  0  0  0
   -4.6494    0.3592    0.0000 R   0  0  0  0  0  1  0  0  0  0  0  0
   -4.0303   -2.1640    0.0000 O   0  0  0  0  0  0  0  0  0  0  0  0
  1  2  1  0
  2  3  1  0
  2  4  1  0
  4  5  1  6
  5  6  1  0
  6  7  2  0
  7  8  1  0
  7  9  1  0
  9 10  1  0
  9 11  1  0
 11 12  2  0
 12 13  1  0
 13 14  2  0
 14 15  1  0
 15 16  2  0
  4 17  1  0
 17 18  1  0
 17 19  2  0
 16  6  1  0
 16 11  1  0
M  ISO  4   1   1   3   3  10   4  18   2
M  END
>  <symbol>  (225) 
D_Trp_2Me

>  <m_abbr>  (225) 
D_Trp_2Me

>  <m_name>  (225) 
(2R)-2-amino-3-(2-methyl-1H-indol-3-yl)propanoic acid

>  <m_type>  (225) 
aa

>  <m_subtype>  (225) 
natural

>  <m_Rgroups>  (225) 
[H],[OH],[H],[H]

>  <m_chem_types>  (225) 
1:backbone_n,2:backbone_c,3:backbone_n_mod,4:aromatic_nh

>  <m_activation_policy>  (225) 
canonical-sites-v1

$$$$

     RDKit          2D

 18 18  0  0  0  0  0  0  0  0999 V2000
   -3.7898    2.0459    0.0000 R   0  0  0  0  0  1  0  0  0  0  0  0
   -2.5342    1.2253    0.0000 N   0  0  0  0  0  0  0  0  0  0  0  0
   -1.1957    1.9023    0.0000 R   0  0  0  0  0  1  0  0  0  0  0  0
   -2.6171   -0.2724    0.0000 C   0  0  0  0  0  0  0  0  0  0  0  0
   -1.3615   -1.0931    0.0000 C   0  0  0  0  0  0  0  0  0  0  0  0
   -0.0230   -0.4160    0.0000 C   0  0  0  0  0  0  0  0  0  0  0  0
    0.0599    1.0817    0.0000 C   0  0  0  0  0  0  0  0  0  0  0  0
    1.3984    1.7587    0.0000 C   0  0  0  0  0  0  0  0  0  0  0  0
    2.6540    0.9381    0.0000 C   0  0  0  0  0  0  0  0  0  0  0  0
    3.9925    1.6151    0.0000 O   0  0  0  0  0  0  0  0  0  0  0  0
    5.2481    0.7945    0.0000 R   0  0  0  0  0  1  0  0  0  0  0  0
    2.5711   -0.5596    0.0000 C   0  0  0  0  0  0  0  0  0  0  0  0
    3.8267   -1.3803    0.0000 O   0  0  0  0  0  0  0  0  0  0  0  0
    3.7438   -2.8780    0.0000 R   0  0  0  0  0  1  0  0  0  0  0  0
    1.2326   -1.2367    0.0000 C   0  0  0  0  0  0  0  0  0  0  0  0
   -3.9556   -0.9495    0.0000 C   0  0  0  0  0  0  0  0  0  0  0  0
   -5.2112   -0.1288    0.0000 R   0  0  0  0  0  1  0  0  0  0  0  0
   -4.0385   -2.4472    0.0000 O   0  0  0  0  0  0  0  0  0  0  0  0
  1  2  1  0
  2  3  1  0
  2  4  1  0
  4  5  1  6
  5  6  1  0
  6  7  1  0
  7  8  2  0
  8  9  1  0
  9 10  1  0
 10 11  1  0
  9 12  2  0
 12 13  1  0
 13 14  1  0
 12 15  1  0
  4 16  1  0
 16 17  1  0
 16 18  2  0
 15  6  2  0
M  ISO  5   1   1   3   3  11   4  14   5  17   2
M  END
>  <symbol>  (226) 
D_Tyr_3OH

>  <m_abbr>  (226) 
D_Tyr_3OH

>  <m_name>  (226) 
(2R)-2-amino-3-(3,4-dihydroxyphenyl)propanoic acid

>  <m_type>  (226) 
aa

>  <m_subtype>  (226) 
natural

>  <m_Rgroups>  (226) 
[H],[OH],[H],[H],[H]

>  <m_chem_types>  (226) 
1:backbone_n,2:backbone_c,3:backbone_n_mod,4:aryl_phenol_o,5:aryl_phenol_o

>  <m_activation_policy>  (226) 
canonical-sites-v1

$$$$

     RDKit          2D

 16 16  0  0  0  0  0  0  0  0999 V2000
   -3.0227    2.2431    0.0000 R   0  0  0  0  0  1  0  0  0  0  0  0
   -1.8997    1.2486    0.0000 N   0  0  0  0  0  0  0  0  0  0  0  0
   -0.4770    1.7239    0.0000 R   0  0  0  0  0  1  0  0  0  0  0  0
   -2.1995   -0.2211    0.0000 C   0  0  0  0  0  0  0  0  0  0  0  0
   -1.0766   -1.2156    0.0000 C   0  0  0  0  0  0  0  0  0  0  0  0
    0.3462   -0.7404    0.0000 C   0  0  0  0  0  0  0  0  0  0  0  0
    0.6459    0.7294    0.0000 C   0  0  0  0  0  0  0  0  0  0  0  0
    2.0687    1.2046    0.0000 C   0  0  0  0  0  0  0  0  0  0  0  0
    3.1916    0.2101    0.0000 C   0  0  0  0  0  0  0  0  0  0  0  0
    4.6143    0.6854    0.0000 O   0  0  0  0  0  0  0  0  0  0  0  0
    5.7373   -0.3091    0.0000 C   0  0  0  0  0  0  0  0  0  0  0  0
    2.8918   -1.2596    0.0000 C   0  0  0  0  0  0  0  0  0  0  0  0
    1.4691   -1.7348    0.0000 C   0  0  0  0  0  0  0  0  0  0  0  0
   -3.6222   -0.6964    0.0000 C   0  0  0  0  0  0  0  0  0  0  0  0
   -4.7452    0.2981    0.0000 R   0  0  0  0  0  1  0  0  0  0  0  0
   -3.9220   -2.1661    0.0000 O   0  0  0  0  0  0  0  0  0  0  0  0
  1  2  1  0
  2  3  1  0
  2  4  1  0
  4  5  1  6
  5  6  1  0
  6  7  1  0
  7  8  2  0
  8  9  1  0
  9 10  1  0
 10 11  1  0
  9 12  2  0
 12 13  1  0
  4 14  1  0
 14 15  1  0
 14 16  2  0
 13  6  2  0
M  ISO  3   1   1   3   3  15   2
M  END
>  <symbol>  (227) 
D_Tyr_Me

>  <m_abbr>  (227) 
D_Tyr_Me

>  <m_name>  (227) 
(2R)-2-amino-3-(4-methoxyphenyl)propanoic acid

>  <m_type>  (227) 
aa

>  <m_subtype>  (227) 
natural

>  <m_Rgroups>  (227) 
[H],[OH],[H]

>  <m_chem_types>  (227) 
1:backbone_n,2:backbone_c,3:backbone_n_mod

>  <m_activation_policy>  (227) 
canonical-sites-v1

$$$$

     RDKit          2D

 11 10  0  0  0  0  0  0  0  0999 V2000
   -2.0616   -1.9640    0.0000 R   0  0  0  0  0  1  0  0  0  0  0  0
   -0.6443   -1.4730    0.0000 N   0  0  0  0  0  0  0  0  0  0  0  0
    0.4896   -2.4550    0.0000 R   0  0  0  0  0  1  0  0  0  0  0  0
   -0.3608    0.0000    0.0000 C   0  0  0  0  0  0  0  0  0  0  0  0
   -1.4947    0.9820    0.0000 C   0  0  0  0  0  0  0  0  0  0  0  0
   -1.2112    2.4550    0.0000 R   0  0  0  0  0  1  0  0  0  0  0  0
   -2.9120    0.4910    0.0000 O   0  0  0  0  0  0  0  0  0  0  0  0
    1.0566    0.4910    0.0000 C   0  0  0  0  0  0  0  0  0  0  0  0
    1.3401    1.9640    0.0000 C   0  0  0  0  0  0  0  0  0  0  0  0
    2.1905   -0.4910    0.0000 C   0  0  0  0  0  0  0  0  0  0  0  0
    3.6078   -0.0000    0.0000 C   0  0  0  0  0  0  0  0  0  0  0  0
  1  2  1  0
  2  3  1  0
  2  4  1  0
  4  5  1  0
  5  6  1  0
  5  7  2  0
  4  8  1  1
  8  9  1  0
  8 10  1  0
 10 11  1  0
M  ISO  3   1   1   3   3   6   2
M  END
>  <symbol>  (228) 
D_xiIle

>  <m_abbr>  (228) 
D_xiIle

>  <m_name>  (228) 
(2R)-2-amino-3-methylpentanoic acid

>  <m_type>  (228) 
aa

>  <m_subtype>  (228) 
natural

>  <m_Rgroups>  (228) 
[H],[OH],[H]

>  <m_chem_types>  (228) 
1:backbone_n,2:backbone_c,3:backbone_n_mod

>  <m_activation_policy>  (228) 
canonical-sites-v1

$$$$

     RDKit          2D

 16 15  0  0  0  0  0  0  0  0999 V2000
   -5.1587   -0.7795    0.0000 R   0  0  0  0  0  1  0  0  0  0  0  0
   -3.7186   -1.1993    0.0000 N   0  0  0  0  0  0  0  0  0  0  0  0
   -3.3622   -2.6563    0.0000 R   0  0  0  0  0  1  0  0  0  0  0  0
   -2.6350   -0.1621    0.0000 C   0  0  0  0  0  0  0  0  0  0  0  0
   -1.1950   -0.5819    0.0000 C   0  0  0  0  0  0  0  0  0  0  0  0
   -0.1114    0.4553    0.0000 C   0  0  0  0  0  0  0  0  0  0  0  0
    1.3287    0.0355    0.0000 C   0  0  0  0  0  0  0  0  0  0  0  0
    2.4123    1.0727    0.0000 C   0  0  0  0  0  0  0  0  0  0  0  0
    3.8523    0.6529    0.0000 N   0  0  0  0  0  0  0  0  0  0  0  0
    4.9359    1.6901    0.0000 R   0  0  0  0  0  1  0  0  0  0  0  0
    4.2088   -0.8041    0.0000 C   0  0  0  0  0  0  0  0  0  0  0  0
    5.6488   -1.2240    0.0000 C   0  0  0  0  0  0  0  0  0  0  0  0
    3.1252   -1.8414    0.0000 C   0  0  0  0  0  0  0  0  0  0  0  0
   -2.9915    1.2950    0.0000 C   0  0  0  0  0  0  0  0  0  0  0  0
   -1.9079    2.3322    0.0000 R   0  0  0  0  0  1  0  0  0  0  0  0
   -4.4315    1.7148    0.0000 O   0  0  0  0  0  0  0  0  0  0  0  0
  1  2  1  0
  2  3  1  0
  2  4  1  0
  4  5  1  6
  5  6  1  0
  6  7  1  0
  7  8  1  0
  8  9  1  0
  9 10  1  0
  9 11  1  0
 11 12  1  0
 11 13  1  0
  4 14  1  0
 14 15  1  0
 14 16  2  0
M  ISO  4   1   1   3   3  10   4  15   2
M  END
>  <symbol>  (229) 
Lys_iPr

>  <m_abbr>  (229) 
Lys_iPr

>  <m_name>  (229) 
(2S)-2-amino-6-[(propan-2-yl)amino]hexanoic acid

>  <m_type>  (229) 
aa

>  <m_subtype>  (229) 
natural

>  <m_Rgroups>  (229) 
[H],[OH],[H],[H]

>  <m_chem_types>  (229) 
1:backbone_n,2:backbone_c,3:backbone_n_mod,4:amine_secondary

>  <m_activation_policy>  (229) 
canonical-sites-v1

$$$$

     RDKit          2D

  8  8  0  0  0  0  0  0  0  0999 V2000
   -3.0851    0.4695    0.0000 R   0  0  0  0  0  1  0  0  0  0  0  0
   -2.0677   -0.6327    0.0000 C   0  0  0  0  0  0  0  0  0  0  0  0
   -0.6045   -0.3028    0.0000 C   0  0  0  0  0  0  0  0  0  0  0  0
   -0.1586    1.1294    0.0000 C   0  0  0  0  0  0  0  0  0  0  0  0
    1.3047    1.4594    0.0000 C   0  0  0  0  0  0  0  0  0  0  0  0
    2.3221    0.3572    0.0000 C   0  0  0  0  0  0  0  0  0  0  0  0
    1.8762   -1.0750    0.0000 C   0  0  0  0  0  0  0  0  0  0  0  0
    0.4129   -1.4050    0.0000 C   0  0  0  0  0  0  0  0  0  0  0  0
  1  2  1  0
  2  3  1  0
  3  4  2  0
  4  5  1  0
  5  6  2  0
  6  7  1  0
  7  8  2  0
  8  3  1  0
M  ISO  1   1   2
M  END
>  <symbol>  (230) 
_Bn

>  <m_abbr>  (230) 
_Bn

>  <m_name>  (230) 
C-Terminal toluene

>  <m_type>  (230) 
cap

>  <m_subtype>  (230) 
cap

>  <m_Rgroups>  (230) 
None,[Br]

>  <m_chem_types>  (230) 
2:alkyl_halide_c

>  <m_activation_policy>  (230) 
canonical-sites-v1

$$$$

     RDKit          2D

  9  9  0  0  0  0  0  0  0  0999 V2000
   -4.0444    0.0606    0.0000 R   0  0  0  0  0  1  0  0  0  0  0  0
   -2.5865    0.4135    0.0000 O   0  0  0  0  0  0  0  0  0  0  0  0
   -1.5520   -0.6727    0.0000 C   0  0  0  0  0  0  0  0  0  0  0  0
   -0.0941   -0.3198    0.0000 C   0  0  0  0  0  0  0  0  0  0  0  0
    0.3293    1.1192    0.0000 C   0  0  0  0  0  0  0  0  0  0  0  0
    1.7872    1.4721    0.0000 C   0  0  0  0  0  0  0  0  0  0  0  0
    2.8217    0.3860    0.0000 C   0  0  0  0  0  0  0  0  0  0  0  0
    2.3984   -1.0531    0.0000 C   0  0  0  0  0  0  0  0  0  0  0  0
    0.9405   -1.4059    0.0000 C   0  0  0  0  0  0  0  0  0  0  0  0
  1  2  1  0
  2  3  1  0
  3  4  1  0
  4  5  2  0
  5  6  1  0
  6  7  2  0
  7  8  1  0
  8  9  2  0
  9  4  1  0
M  ISO  1   1   1
M  END
>  <symbol>  (231) 
_OBn

>  <m_abbr>  (231) 
_OBn

>  <m_name>  (231) 
C-Terminal phenylmethanol

>  <m_type>  (231) 
cap

>  <m_subtype>  (231) 
cap

>  <m_Rgroups>  (231) 
[H]

>  <m_chem_types>  (231) 
1:backbone_o

>  <m_activation_policy>  (231) 
canonical-sites-v1

$$$$

     RDKit          2D

  7  7  0  0  0  0  0  0  0  0999 V2000
    2.5714    0.0000    0.0000 R   0  0  0  0  0  1  0  0  0  0  0  0
    1.0714   -0.0000    0.0000 C   0  0  0  0  0  0  0  0  0  0  0  0
    0.3214   -1.2990    0.0000 C   0  0  0  0  0  0  0  0  0  0  0  0
   -1.1786   -1.2990    0.0000 C   0  0  0  0  0  0  0  0  0  0  0  0
   -1.9286    0.0000    0.0000 C   0  0  0  0  0  0  0  0  0  0  0  0
   -1.1786    1.2990    0.0000 C   0  0  0  0  0  0  0  0  0  0  0  0
    0.3214    1.2990    0.0000 C   0  0  0  0  0  0  0  0  0  0  0  0
  1  2  1  0
  2  3  2  0
  3  4  1  0
  4  5  2  0
  5  6  1  0
  6  7  2  0
  7  2  1  0
M  ISO  1   1   1
M  END
>  <symbol>  (232) 
Ph

>  <m_abbr>  (232) 
Ph

>  <m_name>  (232) 
Phenyl

>  <m_type>  (232) 
cap

>  <m_subtype>  (232) 
cap

>  <m_Rgroups>  (232) 
[H]

>  <m_chem_types>  (232) 
1:aryl_c_anchor

>  <m_activation_policy>  (232) 
canonical-sites-v1

$$$$

     RDKit          2D

  8  7  0  0  0  0  0  0  0  0999 V2000
    2.7538    0.8653    0.0000 R   0  0  0  0  0  1  0  0  0  0  0  0
    1.4606    0.1051    0.0000 C   0  0  0  0  0  0  0  0  0  0  0  0
    1.4723   -1.3948    0.0000 O   0  0  0  0  0  0  0  0  0  0  0  0
    0.1558    0.8450    0.0000 O   0  0  0  0  0  0  0  0  0  0  0  0
   -1.1374    0.0849    0.0000 C   0  0  0  0  0  0  0  0  0  0  0  0
   -1.8975    1.3780    0.0000 C   0  0  0  0  0  0  0  0  0  0  0  0
   -0.3772   -1.2083    0.0000 C   0  0  0  0  0  0  0  0  0  0  0  0
   -2.4305   -0.6752    0.0000 C   0  0  0  0  0  0  0  0  0  0  0  0
  1  2  1  0
  2  3  2  0
  2  4  1  0
  4  5  1  0
  5  6  1  0
  5  7  1  0
  5  8  1  0
M  ISO  1   1   2
M  END
>  <symbol>  (233) 
Boc

>  <m_abbr>  (233) 
Boc

>  <m_name>  (233) 
Tert-butyloxycarbonyl

>  <m_type>  (233) 
cap

>  <m_subtype>  (233) 
cap

>  <m_Rgroups>  (233) 
None,[OH]

>  <m_chem_types>  (233) 
2:backbone_c

>  <m_activation_policy>  (233) 
canonical-sites-v1

$$$$

     RDKit          2D

  8  7  0  0  0  0  0  0  0  0999 V2000
    2.2500    1.2990    0.0000 R   0  0  0  0  0  1  0  0  0  0  0  0
    1.5000    0.0000    0.0000 C   0  0  0  0  0  0  0  0  0  0  0  0
    2.2500   -1.2990    0.0000 O   0  0  0  0  0  0  0  0  0  0  0  0
   -0.0000    0.0000    0.0000 C   0  0  0  0  0  0  0  0  0  0  0  0
   -0.7500   -1.2990    0.0000 C   0  0  0  0  0  0  0  0  0  0  0  0
   -2.2500   -1.2990    0.0000 C   0  0  0  0  0  0  0  0  0  0  0  0
   -0.7500    1.2990    0.0000 S   0  0  0  0  0  0  0  0  0  0  0  0
   -2.2500    1.2990    0.0000 R   0  0  0  0  0  1  0  0  0  0  0  0
  1  2  1  0
  2  3  2  0
  2  4  1  0
  4  5  1  6
  5  6  1  0
  4  7  1  0
  7  8  1  0
M  ISO  2   1   2   8   4
M  END
>  <symbol>  (234) 
Mba

>  <m_abbr>  (234) 
Mba

>  <m_name>  (234) 
Mercaptobutanoic acid

>  <m_type>  (234) 
cap

>  <m_subtype>  (234) 
cap

>  <m_Rgroups>  (234) 
None,[OH],None,[H]

>  <m_chem_types>  (234) 
2:backbone_c,4:thiol

>  <m_activation_policy>  (234) 
canonical-sites-v1

$$$$

     RDKit          2D

  9  8  0  0  0  0  0  0  0  0999 V2000
    2.9797    0.5618    0.0000 R   0  0  0  0  0  1  0  0  0  0  0  0
    1.8157   -0.3843    0.0000 C   0  0  0  0  0  0  0  0  0  0  0  0
    2.0530   -1.8654    0.0000 O   0  0  0  0  0  0  0  0  0  0  0  0
    0.4144    0.1508    0.0000 C   0  0  0  0  0  0  0  0  0  0  0  0
   -0.7497   -0.7953    0.0000 C   0  0  0  0  0  0  0  0  0  0  0  0
   -2.1510   -0.2602    0.0000 C   0  0  0  0  0  0  0  0  0  0  0  0
   -3.3150   -1.2063    0.0000 C   0  0  0  0  0  0  0  0  0  0  0  0
    0.1771    1.6319    0.0000 O   0  0  0  0  0  0  0  0  0  0  0  0
   -1.2242    2.1669    0.0000 R   0  0  0  0  0  1  0  0  0  0  0  0
  1  2  1  0
  2  3  2  0
  2  4  1  0
  4  5  1  6
  5  6  1  0
  6  7  1  0
  4  8  1  0
  8  9  1  0
M  ISO  2   1   2   9   4
M  END
>  <symbol>  (235) 
Hva

>  <m_abbr>  (235) 
Hva

>  <m_name>  (235) 
2-Hydroxypentanoic acid

>  <m_type>  (235) 
cap

>  <m_subtype>  (235) 
cap

>  <m_Rgroups>  (235) 
None,[OH],None,[H]

>  <m_chem_types>  (235) 
2:backbone_c,4:hydroxyl

>  <m_activation_policy>  (235) 
canonical-sites-v1

$$$$

     RDKit          2D

 10 10  0  0  0  0  0  0  0  0999 V2000
   -3.7985   -0.4910    0.0000 R   0  0  0  0  0  1  0  0  0  0  0  0
   -2.3812   -0.0000    0.0000 C   0  0  0  0  0  0  0  0  0  0  0  0
   -2.0977    1.4730    0.0000 O   0  0  0  0  0  0  0  0  0  0  0  0
   -1.2473   -0.9820    0.0000 C   0  0  0  0  0  0  0  0  0  0  0  0
    0.1701   -0.4910    0.0000 C   0  0  0  0  0  0  0  0  0  0  0  0
    0.4536    0.9820    0.0000 C   0  0  0  0  0  0  0  0  0  0  0  0
    1.8709    1.4730    0.0000 C   0  0  0  0  0  0  0  0  0  0  0  0
    3.0048    0.4910    0.0000 C   0  0  0  0  0  0  0  0  0  0  0  0
    2.7213   -0.9820    0.0000 C   0  0  0  0  0  0  0  0  0  0  0  0
    1.3040   -1.4730    0.0000 C   0  0  0  0  0  0  0  0  0  0  0  0
  1  2  1  0
  2  3  2  0
  2  4  1  0
  4  5  1  0
  5  6  1  0
  6  7  1  0
  7  8  1  0
  8  9  1  0
  9 10  1  0
 10  5  1  0
M  ISO  1   1   2
M  END
>  <symbol>  (236) 
deamino_Chg

>  <m_abbr>  (236) 
deamino_Chg

>  <m_name>  (236) 
2-cyclohexylacetic acid

>  <m_type>  (236) 
cap

>  <m_subtype>  (236) 
cap

>  <m_Rgroups>  (236) 
None,[OH]

>  <m_chem_types>  (236) 
2:backbone_c

>  <m_activation_policy>  (236) 
canonical-sites-v1

$$$$

     RDKit          2D

 17 18  0  0  0  0  0  0  0  0999 V2000
   -2.1838    3.8120    0.0000 R   0  0  0  0  0  1  0  0  0  0  0  0
   -1.7518    2.3755    0.0000 C   0  0  0  0  0  0  0  0  0  0  0  0
   -2.7798    1.2832    0.0000 O   0  0  0  0  0  0  0  0  0  0  0  0
   -0.2918    2.0315    0.0000 C   0  0  0  0  0  0  0  0  0  0  0  0
    0.1402    0.5950    0.0000 C   0  0  0  0  0  0  0  0  0  0  0  0
    1.6002    0.2509    0.0000 C   0  0  0  0  0  0  0  0  0  0  0  0
    2.0322   -1.1855    0.0000 C   0  0  0  0  0  0  0  0  0  0  0  0
    3.4922   -1.5296    0.0000 C   0  0  0  0  0  0  0  0  0  0  0  0
    4.5202   -0.4372    0.0000 C   0  0  0  0  0  0  0  0  0  0  0  0
    4.0882    0.9992    0.0000 C   0  0  0  0  0  0  0  0  0  0  0  0
    2.6282    1.3433    0.0000 C   0  0  0  0  0  0  0  0  0  0  0  0
   -0.8878   -0.4973    0.0000 C   0  0  0  0  0  0  0  0  0  0  0  0
   -2.3478   -0.1533    0.0000 C   0  0  0  0  0  0  0  0  0  0  0  0
   -3.3757   -1.2456    0.0000 C   0  0  0  0  0  0  0  0  0  0  0  0
   -2.9437   -2.6821    0.0000 C   0  0  0  0  0  0  0  0  0  0  0  0
   -1.4837   -3.0261    0.0000 C   0  0  0  0  0  0  0  0  0  0  0  0
   -0.4557   -1.9338    0.0000 C   0  0  0  0  0  0  0  0  0  0  0  0
  1  2  1  0
  2  3  2  0
  2  4  1  0
  4  5  1  0
  5  6  1  0
  6  7  2  0
  7  8  1  0
  8  9  2  0
  9 10  1  0
 10 11  2  0
  5 12  1  0
 12 13  2  0
 13 14  1  0
 14 15  2  0
 15 16  1  0
 16 17  2  0
 11  6  1  0
 17 12  1  0
M  ISO  1   1   2
M  END
>  <symbol>  (237) 
deamino_Dip

>  <m_abbr>  (237) 
deamino_Dip

>  <m_name>  (237) 
3,3-diphenylpropanoic acid

>  <m_type>  (237) 
cap

>  <m_subtype>  (237) 
cap

>  <m_Rgroups>  (237) 
None,[OH]

>  <m_chem_types>  (237) 
2:backbone_c

>  <m_activation_policy>  (237) 
canonical-sites-v1

$$$$

     RDKit          2D

  8  7  0  0  0  0  0  0  0  0999 V2000
    2.7538    0.8653    0.0000 R   0  0  0  0  0  1  0  0  0  0  0  0
    1.4606    0.1051    0.0000 C   0  0  0  0  0  0  0  0  0  0  0  0
    1.4723   -1.3948    0.0000 O   0  0  0  0  0  0  0  0  0  0  0  0
    0.1558    0.8450    0.0000 C   0  0  0  0  0  0  0  0  0  0  0  0
   -1.1374    0.0849    0.0000 C   0  0  0  0  0  0  0  0  0  0  0  0
   -1.8975    1.3780    0.0000 C   0  0  0  0  0  0  0  0  0  0  0  0
   -0.3772   -1.2083    0.0000 C   0  0  0  0  0  0  0  0  0  0  0  0
   -2.4305   -0.6752    0.0000 C   0  0  0  0  0  0  0  0  0  0  0  0
  1  2  1  0
  2  3  2  0
  2  4  1  0
  4  5  1  0
  5  6  1  0
  5  7  1  0
  5  8  1  0
M  ISO  1   1   2
M  END
>  <symbol>  (238) 
deamino_Gly_tBu

>  <m_abbr>  (238) 
deamino_Gly_tBu

>  <m_name>  (238) 
3,3-dimethylbutanoic acid

>  <m_type>  (238) 
cap

>  <m_subtype>  (238) 
cap

>  <m_Rgroups>  (238) 
None,[OH]

>  <m_chem_types>  (238) 
2:backbone_c

>  <m_activation_policy>  (238) 
canonical-sites-v1

$$$$

     RDKit          2D

 12 12  0  0  0  0  0  0  0  0999 V2000
   -5.1779   -0.4527    0.0000 R   0  0  0  0  0  1  0  0  0  0  0  0
   -3.7992    0.1382    0.0000 C   0  0  0  0  0  0  0  0  0  0  0  0
   -3.6216    1.6277    0.0000 O   0  0  0  0  0  0  0  0  0  0  0  0
   -2.5981   -0.7603    0.0000 C   0  0  0  0  0  0  0  0  0  0  0  0
   -1.2194   -0.1693    0.0000 C   0  0  0  0  0  0  0  0  0  0  0  0
   -0.0183   -1.0678    0.0000 C   0  0  0  0  0  0  0  0  0  0  0  0
    1.3604   -0.4769    0.0000 C   0  0  0  0  0  0  0  0  0  0  0  0
    1.5380    1.0126    0.0000 C   0  0  0  0  0  0  0  0  0  0  0  0
    2.9167    1.6035    0.0000 C   0  0  0  0  0  0  0  0  0  0  0  0
    4.1178    0.7050    0.0000 C   0  0  0  0  0  0  0  0  0  0  0  0
    3.9402   -0.7845    0.0000 C   0  0  0  0  0  0  0  0  0  0  0  0
    2.5615   -1.3754    0.0000 C   0  0  0  0  0  0  0  0  0  0  0  0
  1  2  1  0
  2  3  2  0
  2  4  1  0
  4  5  1  0
  5  6  1  0
  6  7  1  0
  7  8  2  0
  8  9  1  0
  9 10  2  0
 10 11  1  0
 11 12  2  0
 12  7  1  0
M  ISO  1   1   2
M  END
>  <symbol>  (239) 
deamino_hPhe

>  <m_abbr>  (239) 
deamino_hPhe

>  <m_name>  (239) 
4-phenylbutanoic acid

>  <m_type>  (239) 
cap

>  <m_subtype>  (239) 
cap

>  <m_Rgroups>  (239) 
None,[OH]

>  <m_chem_types>  (239) 
2:backbone_c

>  <m_activation_policy>  (239) 
canonical-sites-v1

$$$$

     RDKit          2D

 12 12  0  0  0  0  0  0  0  0999 V2000
   -4.6510   -0.3663    0.0000 R   0  0  0  0  0  1  0  0  0  0  0  0
   -3.2132    0.0611    0.0000 C   0  0  0  0  0  0  0  0  0  0  0  0
   -2.8645    1.5200    0.0000 O   0  0  0  0  0  0  0  0  0  0  0  0
   -2.1241   -0.9703    0.0000 C   0  0  0  0  0  0  0  0  0  0  0  0
   -0.6863   -0.5428    0.0000 C   0  0  0  0  0  0  0  0  0  0  0  0
   -0.3376    0.9161    0.0000 C   0  0  0  0  0  0  0  0  0  0  0  0
    1.1002    1.3435    0.0000 C   0  0  0  0  0  0  0  0  0  0  0  0
    2.1893    0.3121    0.0000 C   0  0  0  0  0  0  0  0  0  0  0  0
    3.6271    0.7396    0.0000 O   0  0  0  0  0  0  0  0  0  0  0  0
    4.7162   -0.2919    0.0000 C   0  0  0  0  0  0  0  0  0  0  0  0
    1.8406   -1.1468    0.0000 C   0  0  0  0  0  0  0  0  0  0  0  0
    0.4028   -1.5743    0.0000 C   0  0  0  0  0  0  0  0  0  0  0  0
  1  2  1  0
  2  3  2  0
  2  4  1  0
  4  5  1  0
  5  6  1  0
  6  7  2  0
  7  8  1  0
  8  9  1  0
  9 10  1  0
  8 11  2  0
 11 12  1  0
 12  5  2  0
M  ISO  1   1   2
M  END
>  <symbol>  (240) 
deamino_nTyr_Me

>  <m_abbr>  (240) 
deamino_nTyr_Me

>  <m_name>  (240) 
2-(4-methoxyphenyl)acetic acid

>  <m_type>  (240) 
cap

>  <m_subtype>  (240) 
cap

>  <m_Rgroups>  (240) 
None,[OH]

>  <m_chem_types>  (240) 
2:backbone_c

>  <m_activation_policy>  (240) 
canonical-sites-v1

$$$$

     RDKit          2D

 11 11  0  0  0  0  0  0  0  0999 V2000
   -4.2313   -0.2780    0.0000 R   0  0  0  0  0  1  0  0  0  0  0  0
   -2.7824    0.1103    0.0000 C   0  0  0  0  0  0  0  0  0  0  0  0
   -2.3942    1.5592    0.0000 O   0  0  0  0  0  0  0  0  0  0  0  0
   -1.7218   -0.9504    0.0000 C   0  0  0  0  0  0  0  0  0  0  0  0
   -0.2729   -0.5622    0.0000 C   0  0  0  0  0  0  0  0  0  0  0  0
    0.1153    0.8867    0.0000 C   0  0  0  0  0  0  0  0  0  0  0  0
    1.5642    1.2750    0.0000 C   0  0  0  0  0  0  0  0  0  0  0  0
    2.6249    0.2143    0.0000 C   0  0  0  0  0  0  0  0  0  0  0  0
    4.0738    0.6025    0.0000 Cl  0  0  0  0  0  0  0  0  0  0  0  0
    2.2367   -1.2346    0.0000 C   0  0  0  0  0  0  0  0  0  0  0  0
    0.7878   -1.6228    0.0000 C   0  0  0  0  0  0  0  0  0  0  0  0
  1  2  1  0
  2  3  2  0
  2  4  1  0
  4  5  1  0
  5  6  1  0
  6  7  2  0
  7  8  1  0
  8  9  1  0
  8 10  2  0
 10 11  1  0
 11  5  2  0
M  ISO  1   1   2
M  END
>  <symbol>  (241) 
deamino_Phg_4Cl

>  <m_abbr>  (241) 
deamino_Phg_4Cl

>  <m_name>  (241) 
2-(4-chlorophenyl)acetic acid

>  <m_type>  (241) 
cap

>  <m_subtype>  (241) 
cap

>  <m_Rgroups>  (241) 
None,[OH]

>  <m_chem_types>  (241) 
2:backbone_c

>  <m_activation_policy>  (241) 
canonical-sites-v1

$$$$

     RDKit          2D

  9  8  0  0  0  0  0  0  0  0999 V2000
    2.2500    1.5877    0.0000 R   0  0  0  0  0  1  0  0  0  0  0  0
    1.5000    0.2887    0.0000 C   0  0  0  0  0  0  0  0  0  0  0  0
    2.2500   -1.0104    0.0000 O   0  0  0  0  0  0  0  0  0  0  0  0
   -0.0000    0.2887    0.0000 C   0  0  0  0  0  0  0  0  0  0  0  0
   -0.7500    1.5877    0.0000 O   0  0  0  0  0  0  0  0  0  0  0  0
   -2.2500    1.5877    0.0000 R   0  0  0  0  0  1  0  0  0  0  0  0
   -0.7500   -1.0104    0.0000 C   0  0  0  0  0  0  0  0  0  0  0  0
   -2.2500   -1.0104    0.0000 C   0  0  0  0  0  0  0  0  0  0  0  0
    0.0000   -2.3094    0.0000 C   0  0  0  0  0  0  0  0  0  0  0  0
  1  2  1  0
  2  3  2  0
  2  4  1  0
  4  5  1  1
  5  6  1  0
  4  7  1  0
  7  8  1  0
  7  9  1  0
M  ISO  2   1   2   6   4
M  END
>  <symbol>  (242) 
D_OVal

>  <m_abbr>  (242) 
D_OVal

>  <m_name>  (242) 
(2R)-2-hydroxy-3-methylbutanoic acid

>  <m_type>  (242) 
cap

>  <m_subtype>  (242) 
cap

>  <m_Rgroups>  (242) 
None,[OH],None,[H]

>  <m_chem_types>  (242) 
2:backbone_c,4:hydroxyl

>  <m_activation_policy>  (242) 
canonical-sites-v1

$$$$

     RDKit          2D

 10  9  0  0  0  0  0  0  0  0999 V2000
    3.1546    0.7752    0.0000 R   0  0  0  0  0  1  0  0  0  0  0  0
    2.0963   -0.2879    0.0000 C   0  0  0  0  0  0  0  0  0  0  0  0
    2.4878   -1.7359    0.0000 O   0  0  0  0  0  0  0  0  0  0  0  0
    0.6466    0.0971    0.0000 C   0  0  0  0  0  0  0  0  0  0  0  0
   -0.4117   -0.9659    0.0000 C   0  0  0  0  0  0  0  0  0  0  0  0
   -1.8615   -0.5809    0.0000 C   0  0  0  0  0  0  0  0  0  0  0  0
   -2.9197   -1.6440    0.0000 C   0  0  0  0  0  0  0  0  0  0  0  0
   -2.2529    0.8671    0.0000 C   0  0  0  0  0  0  0  0  0  0  0  0
    0.2551    1.5451    0.0000 O   0  0  0  0  0  0  0  0  0  0  0  0
   -1.1946    1.9301    0.0000 R   0  0  0  0  0  1  0  0  0  0  0  0
  1  2  1  0
  2  3  2  0
  2  4  1  0
  4  5  1  6
  5  6  1  0
  6  7  1  0
  6  8  1  0
  4  9  1  0
  9 10  1  0
M  ISO  2   1   2  10   4
M  END
>  <symbol>  (243) 
OLeu

>  <m_abbr>  (243) 
OLeu

>  <m_name>  (243) 
(2S)-2-hydroxy-4-methylpentanoic acid

>  <m_type>  (243) 
cap

>  <m_subtype>  (243) 
cap

>  <m_Rgroups>  (243) 
None,[OH],None,[H]

>  <m_chem_types>  (243) 
2:backbone_c,4:hydroxyl

>  <m_activation_policy>  (243) 
canonical-sites-v1

$$$$

     RDKit          2D

  8  8  0  0  0  0  0  0  0  0999 V2000
   -3.0851    0.4695    0.0000 R   0  0  0  0  0  1  0  0  0  0  0  0
   -2.0677   -0.6327    0.0000 C   0  0  0  0  0  0  0  0  0  0  0  0
   -0.6045   -0.3028    0.0000 C   0  0  0  0  0  0  0  0  0  0  0  0
   -0.1586    1.1294    0.0000 C   0  0  0  0  0  0  0  0  0  0  0  0
    1.3047    1.4594    0.0000 C   0  0  0  0  0  0  0  0  0  0  0  0
    2.3221    0.3572    0.0000 C   0  0  0  0  0  0  0  0  0  0  0  0
    1.8762   -1.0750    0.0000 C   0  0  0  0  0  0  0  0  0  0  0  0
    0.4129   -1.4050    0.0000 C   0  0  0  0  0  0  0  0  0  0  0  0
  1  2  1  0
  2  3  1  0
  3  4  2  0
  4  5  1  0
  5  6  2  0
  6  7  1  0
  7  8  2  0
  8  3  1  0
M  ISO  1   1   2
M  END
>  <symbol>  (244) 
Bn_

>  <m_abbr>  (244) 
Bn_

>  <m_name>  (244) 
N-Terminal toluene

>  <m_type>  (244) 
cap

>  <m_subtype>  (244) 
cap

>  <m_Rgroups>  (244) 
None,[Br]

>  <m_chem_types>  (244) 
2:alkyl_halide_c

>  <m_activation_policy>  (244) 
canonical-sites-v1

$$$$

     RDKit          2D

  9  9  0  0  0  0  0  0  0  0999 V2000
   -4.0444    0.0606    0.0000 R   0  0  0  0  0  1  0  0  0  0  0  0
   -2.5865    0.4135    0.0000 O   0  0  0  0  0  0  0  0  0  0  0  0
   -1.5520   -0.6727    0.0000 C   0  0  0  0  0  0  0  0  0  0  0  0
   -0.0941   -0.3198    0.0000 C   0  0  0  0  0  0  0  0  0  0  0  0
    0.3293    1.1192    0.0000 C   0  0  0  0  0  0  0  0  0  0  0  0
    1.7872    1.4721    0.0000 C   0  0  0  0  0  0  0  0  0  0  0  0
    2.8217    0.3860    0.0000 C   0  0  0  0  0  0  0  0  0  0  0  0
    2.3984   -1.0531    0.0000 C   0  0  0  0  0  0  0  0  0  0  0  0
    0.9405   -1.4059    0.0000 C   0  0  0  0  0  0  0  0  0  0  0  0
  1  2  1  0
  2  3  1  0
  3  4  1  0
  4  5  2  0
  5  6  1  0
  6  7  2  0
  7  8  1  0
  8  9  2  0
  9  4  1  0
M  ISO  1   1   1
M  END
>  <symbol>  (245) 
OBn_

>  <m_abbr>  (245) 
OBn_

>  <m_name>  (245) 
N-Terminal phenylmethanol

>  <m_type>  (245) 
cap

>  <m_subtype>  (245) 
cap

>  <m_Rgroups>  (245) 
[H]

>  <m_chem_types>  (245) 
1:backbone_o

>  <m_activation_policy>  (245) 
canonical-sites-v1

$$$$

     RDKit          2D

 13 12  0  0  0  0  0  0  0  0999 V2000
   -5.6309    0.9044    0.0000 R   0  0  0  0  0  1  0  0  0  0  0  0
   -4.4209    0.0179    0.0000 N   0  0  0  0  0  0  0  0  0  0  0  0
   -4.5835   -1.4732    0.0000 R   0  0  0  0  0  1  0  0  0  0  0  0
   -3.0482    0.6226    0.0000 C   0  0  0  0  0  0  0  0  0  0  0  0
   -1.8381   -0.2638    0.0000 C   0  0  0  0  0  0  0  0  0  0  0  0
   -0.4654    0.3409    0.0000 C   0  0  0  0  0  0  0  0  0  0  0  0
    0.7446   -0.5455    0.0000 C   0  0  0  0  0  0  0  0  0  0  0  0
    2.1174    0.0592    0.0000 C   0  0  0  0  0  0  0  0  0  0  0  0
    2.2800    1.5504    0.0000 O   0  0  0  0  0  0  0  0  0  0  0  0
    3.6527    2.1551    0.0000 R   0  0  0  0  0  1  0  0  0  0  0  0
    3.3274   -0.8272    0.0000 C   0  0  0  0  0  0  0  0  0  0  0  0
    4.7001   -0.2225    0.0000 R   0  0  0  0  0  1  0  0  0  0  0  0
    3.1648   -2.3184    0.0000 O   0  0  0  0  0  0  0  0  0  0  0  0
  1  2  1  0
  2  3  1  0
  2  4  1  0
  4  5  1  0
  5  6  1  0
  6  7  1  0
  7  8  1  0
  8  9  1  0
  9 10  1  0
  8 11  1  0
 11 12  1  0
 11 13  2  0
M  ISO  4   1   1   3   3  10   4  12   2
M  END
>  <symbol>  (246) 
deamino_Lys

>  <m_abbr>  (246) 
deamino_Lys

>  <m_name>  (246) 
Deamino-Lysine

>  <m_type>  (246) 
aa

>  <m_subtype>  (246) 
cap

>  <m_Rgroups>  (246) 
[H],[OH],[H],[H]

>  <m_chem_types>  (246) 
1:backbone_n,2:backbone_c,3:backbone_n_mod,4:hydroxyl

>  <m_activation_policy>  (246) 
canonical-sites-v1

$$$$

     RDKit          2D

 17 17  0  0  0  0  0  0  0  0999 V2000
   -3.7845    1.8026    0.0000 R   0  0  0  0  0  1  0  0  0  0  0  0
   -2.4423    1.1330    0.0000 N   0  0  0  0  0  0  0  0  0  0  0  0
   -1.1912    1.9606    0.0000 R   0  0  0  0  0  1  0  0  0  0  0  0
   -2.3510   -0.3643    0.0000 C   0  0  0  0  0  0  0  0  0  0  0  0
   -1.0088   -1.0339    0.0000 C   0  0  0  0  0  0  0  0  0  0  0  0
    0.2422   -0.2062    0.0000 C   0  0  0  0  0  0  0  0  0  0  0  0
    0.1510    1.2910    0.0000 C   0  0  0  0  0  0  0  0  0  0  0  0
    1.4020    2.1186    0.0000 C   0  0  0  0  0  0  0  0  0  0  0  0
    2.7443    1.4490    0.0000 C   0  0  0  0  0  0  0  0  0  0  0  0
    2.8355   -0.0482    0.0000 C   0  0  0  0  0  0  0  0  0  0  0  0
    4.1778   -0.7178    0.0000 N   0  0  0  0  0  0  0  0  0  0  0  0
    5.4288    0.1098    0.0000 O   0  0  0  0  0  0  0  0  0  0  0  0
    4.2690   -2.2150    0.0000 O   0  0  0  0  0  0  0  0  0  0  0  0
    1.5845   -0.8758    0.0000 C   0  0  0  0  0  0  0  0  0  0  0  0
   -3.6020   -1.1919    0.0000 C   0  0  0  0  0  0  0  0  0  0  0  0
   -4.9443   -0.5223    0.0000 R   0  0  0  0  0  1  0  0  0  0  0  0
   -3.5108   -2.6891    0.0000 O   0  0  0  0  0  0  0  0  0  0  0  0
  1  2  1  0
  2  3  1  0
  2  4  1  0
  4  5  2  3
  5  6  1  0
  6  7  1  0
  7  8  2  0
  8  9  1  0
  9 10  2  0
 10 11  1  0
 11 12  2  0
 11 13  1  0
 10 14  1  0
  4 15  1  0
 15 16  1  0
 15 17  2  0
 14  6  2  0
M  CHG  2  11   1  13  -1
M  ISO  3   1   1   3   3  16   2
M  END
>  <symbol>  (247) 
Phe_ab_dehydro_3NO2

>  <m_abbr>  (247) 
Phe_ab_dehydro_3NO2

>  <m_name>  (247) 
2-amino-3-(3-nitrophenyl)prop-2-enoic acid

>  <m_type>  (247) 
aa

>  <m_subtype>  (247) 
natural

>  <m_Rgroups>  (247) 
[H],[OH],[H]

>  <m_chem_types>  (247) 
1:backbone_n,2:backbone_c,3:backbone_n_mod

>  <m_activation_policy>  (247) 
canonical-sites-v1

$$$$

     RDKit          2D

 15 14  0  0  0  0  0  0  0  0999 V2000
   -2.2129    2.5521    0.0000 R   0  0  0  0  0  1  0  0  0  0  0  0
   -2.5172    1.0833    0.0000 N   0  0  0  0  0  0  0  0  0  0  0  0
   -3.9414    0.6125    0.0000 R   0  0  0  0  0  1  0  0  0  0  0  0
   -1.3974    0.0853    0.0000 C   0  0  0  0  0  0  0  0  0  0  0  0
   -1.7017   -1.3835    0.0000 C   0  0  0  0  0  0  0  0  0  0  0  0
   -0.5819   -2.3815    0.0000 C   0  0  0  0  0  0  0  0  0  0  0  0
   -0.8863   -3.8503    0.0000 C   0  0  0  0  0  0  0  0  0  0  0  0
    0.8423   -1.9106    0.0000 C   0  0  0  0  0  0  0  0  0  0  0  0
    0.0268    0.5561    0.0000 C   0  0  0  0  0  0  0  0  0  0  0  0
    1.1466   -0.4418    0.0000 C   0  0  0  0  0  0  0  0  0  0  0  0
    2.5708    0.0290    0.0000 C   0  0  0  0  0  0  0  0  0  0  0  0
    3.6907   -0.9690    0.0000 R   0  0  0  0  0  1  0  0  0  0  0  0
    2.8752    1.4978    0.0000 O   0  0  0  0  0  0  0  0  0  0  0  0
    0.3311    2.0249    0.0000 O   0  0  0  0  0  0  0  0  0  0  0  0
    1.7553    2.4958    0.0000 R   0  0  0  0  0  1  0  0  0  0  0  0
  1  2  1  0
  2  3  1  0
  2  4  1  0
  4  5  1  6
  5  6  1  0
  6  7  1  0
  6  8  1  0
  4  9  1  0
  9 10  1  1
 10 11  1  0
 11 12  1  0
 11 13  2  0
  9 14  1  0
 14 15  1  0
M  ISO  4   1   1   3   3  12   2  15   4
M  END
>  <symbol>  (248) 
Sta_3S4S

>  <m_abbr>  (248) 
Sta_3S4S

>  <m_name>  (248) 
(3S,4S)-4-amino-3-hydroxy-6-methylheptanoic acid

>  <m_type>  (248) 
aa

>  <m_subtype>  (248) 
natural

>  <m_Rgroups>  (248) 
[H],[OH],[H],[H]

>  <m_chem_types>  (248) 
1:backbone_n,2:backbone_c,3:backbone_n_mod,4:hydroxyl

>  <m_activation_policy>  (248) 
canonical-sites-v1

$$$$

     RDKit          2D

 11 10  0  0  0  0  0  0  0  0999 V2000
   -4.0647    0.8891    0.0000 R   0  0  0  0  0  1  0  0  0  0  0  0
   -2.7298    0.2049    0.0000 N   0  0  0  0  0  0  0  0  0  0  0  0
   -2.6549   -1.2932    0.0000 R   0  0  0  0  0  1  0  0  0  0  0  0
   -1.4698    1.0188    0.0000 C   0  0  0  0  0  0  0  0  0  0  0  0
   -0.1350    0.3346    0.0000 C   0  0  0  0  0  0  0  0  0  0  0  0
    1.1250    1.1485    0.0000 C   0  0  0  0  0  0  0  0  0  0  0  0
    2.4599    0.4643    0.0000 C   0  0  0  0  0  0  0  0  0  0  0  0
    3.7199    1.2782    0.0000 R   0  0  0  0  0  1  0  0  0  0  0  0
    2.5347   -1.0339    0.0000 O   0  0  0  0  0  0  0  0  0  0  0  0
   -0.0601   -1.1635    0.0000 O   0  0  0  0  0  0  0  0  0  0  0  0
    1.2748   -1.8478    0.0000 R   0  0  0  0  0  1  0  0  0  0  0  0
  1  2  1  0
  2  3  1  0
  2  4  1  0
  5  4  1  6
  5  6  1  0
  6  7  1  0
  7  8  1  0
  7  9  2  0
  5 10  1  0
 10 11  1  0
M  ISO  4   1   1   3   3   8   2  11   4
M  END
>  <symbol>  (249) 
Bux

>  <m_abbr>  (249) 
Bux

>  <m_name>  (249) 
(3S)-4-amino-3-hydroxybutanoic acid

>  <m_type>  (249) 
aa

>  <m_subtype>  (249) 
natural

>  <m_Rgroups>  (249) 
[H],[OH],[H],[H]

>  <m_chem_types>  (249) 
1:backbone_n,2:backbone_c,3:backbone_n_mod,4:hydroxyl

>  <m_activation_policy>  (249) 
canonical-sites-v1

$$$$

     RDKit          2D

 17 16  0  0  0  0  0  0  0  0999 V2000
   -1.3639    2.6954    0.0000 R   0  0  0  0  0  1  0  0  0  0  0  0
   -2.2661    1.4971    0.0000 N   0  0  0  0  0  0  0  0  0  0  0  0
   -3.7550    1.6792    0.0000 R   0  0  0  0  0  1  0  0  0  0  0  0
   -1.6794    0.1166    0.0000 C   0  0  0  0  0  0  0  0  0  0  0  0
   -0.2989    0.7033    0.0000 C   0  0  0  0  0  0  0  0  0  0  0  0
    0.8995   -0.1989    0.0000 C   0  0  0  0  0  0  0  0  0  0  0  0
    2.2800    0.3878    0.0000 C   0  0  0  0  0  0  0  0  0  0  0  0
    3.4783   -0.5144    0.0000 C   0  0  0  0  0  0  0  0  0  0  0  0
    4.8588    0.0723    0.0000 C   0  0  0  0  0  0  0  0  0  0  0  0
    6.0572   -0.8299    0.0000 R   0  0  0  0  0  1  0  0  0  0  0  0
    5.0410    1.5612    0.0000 O   0  0  0  0  0  0  0  0  0  0  0  0
   -3.0599   -0.4701    0.0000 C   0  0  0  0  0  0  0  0  0  0  0  0
   -3.2420   -1.9590    0.0000 R   0  0  0  0  0  1  0  0  0  0  0  0
   -4.2582    0.4321    0.0000 O   0  0  0  0  0  0  0  0  0  0  0  0
   -1.0927   -1.2639    0.0000 N   0  0  0  0  0  0  0  0  0  0  0  0
    0.3962   -1.4461    0.0000 R   0  0  0  0  0  1  0  0  0  0  0  0
   -1.9949   -2.4623    0.0000 R   0  0  0  0  0  1  0  0  0  0  0  0
  1  2  1  0
  2  3  1  0
  2  4  1  0
  4  5  1  0
  5  6  1  0
  6  7  1  0
  7  8  1  0
  8  9  1  0
  9 10  1  0
  9 11  2  0
  4 12  1  0
 12 13  1  0
 12 14  2  0
  4 15  1  0
 15 16  1  0
 15 17  1  0
M  ISO  6   1   1   3   3  10   6  13   2  16   4  17   5
M  END
>  <symbol>  (250) 
Dpm

>  <m_abbr>  (250) 
Dpm

>  <m_name>  (250) 
Diaminopimelic acid

>  <m_type>  (250) 
aa

>  <m_subtype>  (250) 
natural

>  <m_Rgroups>  (250) 
[H],[OH],[H],[H],[H],[OH]

>  <m_chem_types>  (250) 
1:backbone_n,2:backbone_c,3:backbone_n_mod,4:amine_primary,5:amine_primary,6:carboxyl

>  <m_activation_policy>  (250) 
canonical-sites-v1

$$$$

     RDKit          2D

 10  9  0  0  0  0  0  0  0  0999 V2000
   -1.5052    2.4340    0.0000 R   0  0  0  0  0  1  0  0  0  0  0  0
   -1.5385    0.9344    0.0000 N   0  0  0  0  0  0  0  0  0  0  0  0
   -2.8539    0.2134    0.0000 R   0  0  0  0  0  1  0  0  0  0  0  0
   -0.2564    0.1557    0.0000 C   0  0  0  0  0  0  0  0  0  0  0  0
    1.0589    0.8767    0.0000 C   0  0  0  0  0  0  0  0  0  0  0  0
    2.3410    0.0981    0.0000 Se  0  0  0  0  0  2  0  0  0  0  0  0
    3.6564    0.8191    0.0000 R   0  0  0  0  0  1  0  0  0  0  0  0
   -0.2897   -1.3439    0.0000 C   0  0  0  0  0  0  0  0  0  0  0  0
    0.9924   -2.1225    0.0000 R   0  0  0  0  0  1  0  0  0  0  0  0
   -1.6051   -2.0649    0.0000 O   0  0  0  0  0  0  0  0  0  0  0  0
  1  2  1  0
  2  3  1  0
  2  4  1  0
  4  5  1  1
  5  6  1  0
  6  7  1  0
  4  8  1  0
  8  9  1  0
  8 10  2  0
M  ISO  4   1   1   3   3   7   4   9   2
M  END
>  <symbol>  (251) 
seC

>  <m_abbr>  (251) 
seC

>  <m_name>  (251) 
SelenoCysteine

>  <m_type>  (251) 
aa

>  <m_subtype>  (251) 
natural

>  <m_Rgroups>  (251) 
[H],[OH],[H],[H]

>  <m_chem_types>  (251) 
1:backbone_n,2:backbone_c,3:backbone_n_mod,4:selenol

>  <m_activation_policy>  (251) 
canonical-sites-v1

$$$$

     RDKit          2D

 21 20  0  0  0  0  0  0  0  0999 V2000
   -6.3683   -0.9534    0.0000 R   0  0  0  0  0  1  0  0  0  0  0  0
   -4.8910   -1.2130    0.0000 N   0  0  0  0  0  0  0  0  0  0  0  0
   -4.3772   -2.6223    0.0000 R   0  0  0  0  0  1  0  0  0  0  0  0
   -3.9274   -0.0634    0.0000 C   0  0  0  0  0  0  0  0  0  0  0  0
   -2.4501   -0.3231    0.0000 C   0  0  0  0  0  0  0  0  0  0  0  0
   -1.4865    0.8265    0.0000 C   0  0  0  0  0  0  0  0  0  0  0  0
   -0.0092    0.5669    0.0000 C   0  0  0  0  0  0  0  0  0  0  0  0
    0.9544    1.7165    0.0000 C   0  0  0  0  0  0  0  0  0  0  0  0
    2.4318    1.4568    0.0000 N   0  0  0  0  0  0  0  0  0  0  0  0
    3.3953    2.6064    0.0000 R   0  0  0  0  0  1  0  0  0  0  0  0
    2.9456    0.0476    0.0000 C   0  0  0  0  0  0  0  0  0  0  0  0
    1.9820   -1.1020    0.0000 N   0  0  0  0  0  0  0  0  0  0  0  0
    2.4958   -2.5113    0.0000 C   0  0  0  0  0  0  0  0  0  0  0  0
    1.5323   -3.6609    0.0000 C   0  0  0  0  0  0  0  0  0  0  0  0
    4.4229   -0.2121    0.0000 N   0  0  0  0  0  0  0  0  0  0  0  0
    4.9367   -1.6214    0.0000 R   0  0  0  0  0  1  0  0  0  0  0  0
    5.3865    0.9375    0.0000 C   0  0  0  0  0  0  0  0  0  0  0  0
    6.8638    0.6778    0.0000 C   0  0  0  0  0  0  0  0  0  0  0  0
   -4.4412    1.3458    0.0000 C   0  0  0  0  0  0  0  0  0  0  0  0
   -3.4777    2.4954    0.0000 R   0  0  0  0  0  1  0  0  0  0  0  0
   -5.9186    1.6055    0.0000 O   0  0  0  0  0  0  0  0  0  0  0  0
  1  2  1  0
  2  3  1  0
  2  4  1  0
  4  5  1  6
  5  6  1  0
  6  7  1  0
  7  8  1  0
  8  9  1  0
  9 10  1  0
  9 11  1  0
 11 12  2  3
 12 13  1  0
 13 14  1  0
 11 15  1  0
 15 16  1  0
 15 17  1  0
 17 18  1  0
  4 19  1  0
 19 20  1  0
 19 21  2  0
M  ISO  5   1   1   3   3  10   5  16   4  20   2
M  END
>  <symbol>  (252) 
L_hArg(Et,Et)

>  <m_abbr>  (252) 
L_hArg(Et,Et)

>  <m_name>  (252) 
(2S)-2-amino-6-{[bis(ethylamino)methylidene]amino}hexanoic acid

>  <m_type>  (252) 
aa

>  <m_subtype>  (252) 
natural

>  <m_Rgroups>  (252) 
[H],[OH],[H],[H],[H]

>  <m_chem_types>  (252) 
1:backbone_n,2:backbone_c,3:backbone_n_mod,4:guanidinium,5:guanidinium

>  <m_activation_policy>  (252) 
canonical-sites-v1

$$$$

     RDKit          2D

 12 11  0  0  0  0  0  0  0  0999 V2000
   -3.5281   -0.5638    0.0000 R   0  0  0  0  0  1  0  0  0  0  0  0
   -2.1179   -1.0748    0.0000 N   0  0  0  0  0  0  0  0  0  0  0  0
   -1.8553   -2.5517    0.0000 R   0  0  0  0  0  1  0  0  0  0  0  0
   -0.9702   -0.1090    0.0000 C   0  0  0  0  0  0  0  0  0  0  0  0
    0.4401   -0.6200    0.0000 C   0  0  0  0  0  0  0  0  0  0  0  0
    1.5878    0.3458    0.0000 C   0  0  0  0  0  0  0  0  0  0  0  0
    2.9981   -0.1653    0.0000 S   0  0  0  0  0  0  0  0  0  0  0  0
    4.1458    0.8005    0.0000 C   0  0  0  0  0  0  0  0  0  0  0  0
    3.2606   -1.6421    0.0000 O   0  0  0  0  0  0  0  0  0  0  0  0
   -1.2327    1.3678    0.0000 C   0  0  0  0  0  0  0  0  0  0  0  0
   -0.0850    2.3336    0.0000 R   0  0  0  0  0  1  0  0  0  0  0  0
   -2.6430    1.8789    0.0000 O   0  0  0  0  0  0  0  0  0  0  0  0
  1  2  1  0
  2  3  1  0
  2  4  1  0
  4  5  1  6
  5  6  1  0
  6  7  1  0
  7  8  1  0
  7  9  1  0
  4 10  1  0
 10 11  1  0
 10 12  2  0
M  CHG  2   7   1   9  -1
M  ISO  3   1   1   3   3  11   2
M  END
>  <symbol>  (253) 
Met_O

>  <m_abbr>  (253) 
Met_O

>  <m_name>  (253) 
(2S)-2-amino-4-methanesulfinylbutanoic acid

>  <m_type>  (253) 
aa

>  <m_subtype>  (253) 
natural

>  <m_Rgroups>  (253) 
[H],[OH],[H]

>  <m_chem_types>  (253) 
1:backbone_n,2:backbone_c,3:backbone_n_mod

>  <m_activation_policy>  (253) 
canonical-sites-v1

$$$$

     RDKit          2D

 15 15  0  0  0  0  0  0  0  0999 V2000
   -3.7935   -1.5130    0.0000 R   0  0  0  0  0  1  0  0  0  0  0  0
   -2.2981   -1.3960    0.0000 N   0  0  0  0  0  0  0  0  0  0  0  0
   -1.4491   -2.6325    0.0000 R   0  0  0  0  0  1  0  0  0  0  0  0
   -1.6517   -0.0424    0.0000 C   0  0  0  0  0  0  0  0  0  0  0  0
   -2.5008    1.1942    0.0000 C   0  0  0  0  0  0  0  0  0  0  0  0
   -3.9962    1.0772    0.0000 R   0  0  0  0  0  1  0  0  0  0  0  0
   -1.8544    2.5478    0.0000 O   0  0  0  0  0  0  0  0  0  0  0  0
   -0.1563    0.0746    0.0000 C   0  0  0  0  0  0  0  0  0  0  0  0
    0.4901    1.4282    0.0000 C   0  0  0  0  0  0  0  0  0  0  0  0
    1.9855    1.5452    0.0000 C   0  0  0  0  0  0  0  0  0  0  0  0
    2.8346    0.3087    0.0000 C   0  0  0  0  0  0  0  0  0  0  0  0
    4.3300    0.4257    0.0000 O   0  0  0  0  0  0  0  0  0  0  0  0
    5.1790   -0.8109    0.0000 R   0  0  0  0  0  1  0  0  0  0  0  0
    2.1882   -1.0449    0.0000 C   0  0  0  0  0  0  0  0  0  0  0  0
    0.6928   -1.1619    0.0000 C   0  0  0  0  0  0  0  0  0  0  0  0
  1  2  1  0
  2  3  1  0
  4  2  1  6
  4  5  1  0
  5  6  1  0
  5  7  2  0
  4  8  1  0
  8  9  1  0
  9 10  2  0
 10 11  1  0
 11 12  1  0
 12 13  1  0
 11 14  2  0
 14 15  1  0
 15  8  2  0
M  ISO  4   1   1   3   3   6   2  13   4
M  END
>  <symbol>  (254) 
nTyr

>  <m_abbr>  (254) 
nTyr

>  <m_name>  (254) 
(2S)-2-amino-2-(4-hydroxyphenyl)acetic acid

>  <m_type>  (254) 
aa

>  <m_subtype>  (254) 
natural

>  <m_Rgroups>  (254) 
[H],[OH],[H],[H]

>  <m_chem_types>  (254) 
1:backbone_n,2:backbone_c,3:backbone_n_mod,4:aryl_phenol_o

>  <m_activation_policy>  (254) 
canonical-sites-v1

$$$$

     RDKit          2D

 13 14  0  0  0  0  0  0  0  0999 V2000
   -1.0632    2.3910    0.0000 R   0  0  0  0  0  1  0  0  0  0  0  0
   -0.5351    0.9871    0.0000 N   0  0  0  0  0  0  0  0  0  0  0  0
   -1.3605   -0.2654    0.0000 C   0  0  0  0  0  0  0  0  0  0  0  0
   -2.8589   -0.3338    0.0000 C   0  0  0  0  0  0  0  0  0  0  0  0
   -3.6674    0.9296    0.0000 R   0  0  0  0  0  1  0  0  0  0  0  0
   -3.5489   -1.6657    0.0000 O   0  0  0  0  0  0  0  0  0  0  0  0
   -0.4244   -1.4375    0.0000 C   0  0  0  0  0  0  0  0  0  0  0  0
    0.9796   -0.9093    0.0000 C   0  0  0  0  0  0  0  0  0  0  0  0
    2.3115   -1.5993    0.0000 C   0  0  0  0  0  0  0  0  0  0  0  0
    3.5750   -0.7908    0.0000 C   0  0  0  0  0  0  0  0  0  0  0  0
    3.5065    0.7076    0.0000 C   0  0  0  0  0  0  0  0  0  0  0  0
    2.1746    1.3976    0.0000 C   0  0  0  0  0  0  0  0  0  0  0  0
    0.9112    0.5891    0.0000 C   0  0  0  0  0  0  0  0  0  0  0  0
  1  2  1  0
  2  3  1  0
  3  4  1  1
  4  5  1  0
  4  6  2  0
  3  7  1  0
  8  7  1  6
  8  9  1  0
  9 10  1  0
 10 11  1  0
 11 12  1  0
 13 12  1  1
 13  2  1  0
 13  8  1  0
M  ISO  2   1   1   5   2
M  END
>  <symbol>  (255) 
Oic_3aR_7aS

>  <m_abbr>  (255) 
Oic_3aR_7aS

>  <m_name>  (255) 
(2S,3aR,7aS)-octahydro-1H-indole-2-carboxylic acid

>  <m_type>  (255) 
aa

>  <m_subtype>  (255) 
natural

>  <m_Rgroups>  (255) 
[H],[OH]

>  <m_chem_types>  (255) 
1:backbone_n,2:backbone_c

>  <m_activation_policy>  (255) 
canonical-sites-v1

$$$$

     RDKit          2D

 13 14  0  0  0  0  0  0  0  0999 V2000
   -1.0632   -2.3910    0.0000 R   0  0  0  0  0  1  0  0  0  0  0  0
   -0.5351   -0.9871    0.0000 N   0  0  0  0  0  0  0  0  0  0  0  0
    0.9112   -0.5891    0.0000 C   0  0  0  0  0  0  0  0  0  0  0  0
    2.1746   -1.3976    0.0000 C   0  0  0  0  0  0  0  0  0  0  0  0
    3.5065   -0.7076    0.0000 C   0  0  0  0  0  0  0  0  0  0  0  0
    3.5750    0.7908    0.0000 C   0  0  0  0  0  0  0  0  0  0  0  0
    2.3115    1.5993    0.0000 C   0  0  0  0  0  0  0  0  0  0  0  0
    0.9796    0.9093    0.0000 C   0  0  0  0  0  0  0  0  0  0  0  0
   -0.4244    1.4375    0.0000 C   0  0  0  0  0  0  0  0  0  0  0  0
   -1.3605    0.2654    0.0000 C   0  0  0  0  0  0  0  0  0  0  0  0
   -2.8589    0.3338    0.0000 C   0  0  0  0  0  0  0  0  0  0  0  0
   -3.5489    1.6657    0.0000 R   0  0  0  0  0  1  0  0  0  0  0  0
   -3.6674   -0.9296    0.0000 O   0  0  0  0  0  0  0  0  0  0  0  0
  1  2  1  0
  2  3  1  0
  3  4  1  0
  4  5  1  0
  5  6  1  0
  6  7  1  0
  7  8  1  0
  8  9  1  0
  9 10  1  0
 10 11  1  6
 11 12  1  0
 11 13  2  0
 10  2  1  0
  8  3  1  0
M  ISO  2   1   1  12   2
M  END
>  <symbol>  (256) 
Oic_3axi_7axi

>  <m_abbr>  (256) 
Oic_3axi_7axi

>  <m_name>  (256) 
(2S)-octahydro-1H-indole-2-carboxylic acid

>  <m_type>  (256) 
aa

>  <m_subtype>  (256) 
natural

>  <m_Rgroups>  (256) 
[H],[OH]

>  <m_chem_types>  (256) 
1:backbone_n,2:backbone_c

>  <m_activation_policy>  (256) 
canonical-sites-v1

$$$$

     RDKit          2D

 15 15  0  0  0  0  0  0  0  0999 V2000
   -2.6971    2.1670    0.0000 R   0  0  0  0  0  1  0  0  0  0  0  0
   -1.4605    1.3179    0.0000 N   0  0  0  0  0  0  0  0  0  0  0  0
   -0.1069    1.9643    0.0000 R   0  0  0  0  0  1  0  0  0  0  0  0
   -1.5775   -0.1775    0.0000 C   0  0  0  0  0  0  0  0  0  0  0  0
   -0.3409   -1.0265    0.0000 C   0  0  0  0  0  0  0  0  0  0  0  0
    1.0127   -0.3802    0.0000 C   0  0  0  0  0  0  0  0  0  0  0  0
    1.1297    1.1153    0.0000 C   0  0  0  0  0  0  0  0  0  0  0  0
    2.4833    1.7617    0.0000 C   0  0  0  0  0  0  0  0  0  0  0  0
    3.7198    0.9126    0.0000 C   0  0  0  0  0  0  0  0  0  0  0  0
    3.6028   -0.5828    0.0000 C   0  0  0  0  0  0  0  0  0  0  0  0
    2.2492   -1.2292    0.0000 C   0  0  0  0  0  0  0  0  0  0  0  0
    2.1322   -2.7246    0.0000 F   0  0  0  0  0  0  0  0  0  0  0  0
   -2.9311   -0.8239    0.0000 C   0  0  0  0  0  0  0  0  0  0  0  0
   -4.1677    0.0252    0.0000 R   0  0  0  0  0  1  0  0  0  0  0  0
   -3.0481   -2.3193    0.0000 O   0  0  0  0  0  0  0  0  0  0  0  0
  1  2  1  0
  2  3  1  0
  2  4  1  0
  4  5  1  1
  5  6  1  0
  6  7  2  0
  7  8  1  0
  8  9  2  0
  9 10  1  0
 10 11  2  0
 11 12  1  0
  4 13  1  0
 13 14  1  0
 13 15  2  0
 11  6  1  0
M  ISO  3   1   1   3   3  14   2
M  END
>  <symbol>  (257) 
Phe_2F

>  <m_abbr>  (257) 
Phe_2F

>  <m_name>  (257) 
(2S)-2-amino-3-(2-fluorophenyl)propanoic acid

>  <m_type>  (257) 
aa

>  <m_subtype>  (257) 
natural

>  <m_Rgroups>  (257) 
[H],[OH],[H]

>  <m_chem_types>  (257) 
1:backbone_n,2:backbone_c,3:backbone_n_mod

>  <m_activation_policy>  (257) 
canonical-sites-v1

$$$$

     RDKit          2D

 15 15  0  0  0  0  0  0  0  0999 V2000
   -2.9107    2.0342    0.0000 R   0  0  0  0  0  1  0  0  0  0  0  0
   -1.6606    1.2052    0.0000 N   0  0  0  0  0  0  0  0  0  0  0  0
   -0.3176    1.8733    0.0000 R   0  0  0  0  0  1  0  0  0  0  0  0
   -1.7535   -0.2919    0.0000 C   0  0  0  0  0  0  0  0  0  0  0  0
   -0.5034   -1.1210    0.0000 C   0  0  0  0  0  0  0  0  0  0  0  0
    0.8396   -0.4529    0.0000 C   0  0  0  0  0  0  0  0  0  0  0  0
    0.9325    1.0442    0.0000 C   0  0  0  0  0  0  0  0  0  0  0  0
    2.2755    1.7123    0.0000 C   0  0  0  0  0  0  0  0  0  0  0  0
    3.5256    0.8833    0.0000 C   0  0  0  0  0  0  0  0  0  0  0  0
    3.4327   -0.6138    0.0000 C   0  0  0  0  0  0  0  0  0  0  0  0
    4.6828   -1.4428    0.0000 F   0  0  0  0  0  0  0  0  0  0  0  0
    2.0897   -1.2819    0.0000 C   0  0  0  0  0  0  0  0  0  0  0  0
   -3.0965   -0.9600    0.0000 C   0  0  0  0  0  0  0  0  0  0  0  0
   -4.3466   -0.1310    0.0000 R   0  0  0  0  0  1  0  0  0  0  0  0
   -3.1894   -2.4572    0.0000 O   0  0  0  0  0  0  0  0  0  0  0  0
  1  2  1  0
  2  3  1  0
  2  4  1  0
  4  5  1  1
  5  6  1  0
  6  7  2  0
  7  8  1  0
  8  9  2  0
  9 10  1  0
 10 11  1  0
 10 12  2  0
  4 13  1  0
 13 14  1  0
 13 15  2  0
 12  6  1  0
M  ISO  3   1   1   3   3  14   2
M  END
>  <symbol>  (258) 
Phe_3F

>  <m_abbr>  (258) 
Phe_3F

>  <m_name>  (258) 
(2S)-2-amino-3-(3-fluorophenyl)propanoic acid

>  <m_type>  (258) 
aa

>  <m_subtype>  (258) 
natural

>  <m_Rgroups>  (258) 
[H],[OH],[H]

>  <m_chem_types>  (258) 
1:backbone_n,2:backbone_c,3:backbone_n_mod

>  <m_activation_policy>  (258) 
canonical-sites-v1

$$$$

     RDKit          2D

 15 15  0  0  0  0  0  0  0  0999 V2000
   -2.5933    2.2771    0.0000 R   0  0  0  0  0  1  0  0  0  0  0  0
   -1.4913    1.2594    0.0000 N   0  0  0  0  0  0  0  0  0  0  0  0
   -0.0590    1.7049    0.0000 R   0  0  0  0  0  1  0  0  0  0  0  0
   -1.8217   -0.2038    0.0000 C   0  0  0  0  0  0  0  0  0  0  0  0
   -0.7197   -1.2215    0.0000 C   0  0  0  0  0  0  0  0  0  0  0  0
    0.7126   -0.7760    0.0000 C   0  0  0  0  0  0  0  0  0  0  0  0
    1.0430    0.6872    0.0000 C   0  0  0  0  0  0  0  0  0  0  0  0
    2.4753    1.1326    0.0000 C   0  0  0  0  0  0  0  0  0  0  0  0
    3.5773    0.1149    0.0000 C   0  0  0  0  0  0  0  0  0  0  0  0
    5.0096    0.5604    0.0000 F   0  0  0  0  0  0  0  0  0  0  0  0
    3.2469   -1.3482    0.0000 C   0  0  0  0  0  0  0  0  0  0  0  0
    1.8146   -1.7937    0.0000 C   0  0  0  0  0  0  0  0  0  0  0  0
   -3.2540   -0.6493    0.0000 C   0  0  0  0  0  0  0  0  0  0  0  0
   -4.3559    0.3684    0.0000 R   0  0  0  0  0  1  0  0  0  0  0  0
   -3.5844   -2.1124    0.0000 O   0  0  0  0  0  0  0  0  0  0  0  0
  1  2  1  0
  2  3  1  0
  2  4  1  0
  4  5  1  1
  5  6  1  0
  6  7  1  0
  7  8  2  0
  8  9  1  0
  9 10  1  0
  9 11  2  0
 11 12  1  0
  4 13  1  0
 13 14  1  0
 13 15  2  0
 12  6  2  0
M  ISO  3   1   1   3   3  14   2
M  END
>  <symbol>  (259) 
Phe_4F

>  <m_abbr>  (259) 
Phe_4F

>  <m_name>  (259) 
(2S)-2-amino-3-(4-fluorophenyl)propanoic acid

>  <m_type>  (259) 
aa

>  <m_subtype>  (259) 
natural

>  <m_Rgroups>  (259) 
[H],[OH],[H]

>  <m_chem_types>  (259) 
1:backbone_n,2:backbone_c,3:backbone_n_mod

>  <m_activation_policy>  (259) 
canonical-sites-v1

$$$$

     RDKit          2D

 17 17  0  0  0  0  0  0  0  0999 V2000
   -3.1584    2.3389    0.0000 R   0  0  0  0  0  1  0  0  0  0  0  0
   -2.1065    1.2696    0.0000 N   0  0  0  0  0  0  0  0  0  0  0  0
   -0.6545    1.6460    0.0000 R   0  0  0  0  0  1  0  0  0  0  0  0
   -2.5066   -0.1760    0.0000 C   0  0  0  0  0  0  0  0  0  0  0  0
   -1.4547   -1.2454    0.0000 C   0  0  0  0  0  0  0  0  0  0  0  0
   -0.0026   -0.8690    0.0000 C   0  0  0  0  0  0  0  0  0  0  0  0
    0.3974    0.5766    0.0000 C   0  0  0  0  0  0  0  0  0  0  0  0
    1.8495    0.9530    0.0000 C   0  0  0  0  0  0  0  0  0  0  0  0
    2.9014   -0.1163    0.0000 C   0  0  0  0  0  0  0  0  0  0  0  0
    4.3534    0.2600    0.0000 N   0  0  0  0  0  0  0  0  0  0  0  0
    4.7535    1.7057    0.0000 O   0  0  0  0  0  0  0  0  0  0  0  0
    5.4054   -0.8093    0.0000 O   0  0  0  0  0  0  0  0  0  0  0  0
    2.5013   -1.5620    0.0000 C   0  0  0  0  0  0  0  0  0  0  0  0
    1.0493   -1.9383    0.0000 C   0  0  0  0  0  0  0  0  0  0  0  0
   -3.9586   -0.5524    0.0000 C   0  0  0  0  0  0  0  0  0  0  0  0
   -5.0106    0.5169    0.0000 R   0  0  0  0  0  1  0  0  0  0  0  0
   -4.3587   -1.9980    0.0000 O   0  0  0  0  0  0  0  0  0  0  0  0
  1  2  1  0
  2  3  1  0
  2  4  1  0
  4  5  1  1
  5  6  1  0
  6  7  1  0
  7  8  2  0
  8  9  1  0
  9 10  1  0
 10 11  2  0
 10 12  1  0
  9 13  2  0
 13 14  1  0
  4 15  1  0
 15 16  1  0
 15 17  2  0
 14  6  2  0
M  CHG  2  10   1  12  -1
M  ISO  3   1   1   3   3  16   2
M  END
>  <symbol>  (260) 
Phe_4NO2

>  <m_abbr>  (260) 
Phe_4NO2

>  <m_name>  (260) 
(2S)-2-amino-3-(4-nitrophenyl)propanoic acid

>  <m_type>  (260) 
aa

>  <m_subtype>  (260) 
natural

>  <m_Rgroups>  (260) 
[H],[OH],[H]

>  <m_chem_types>  (260) 
1:backbone_n,2:backbone_c,3:backbone_n_mod

>  <m_activation_policy>  (260) 
canonical-sites-v1

$$$$

     RDKit          2D

 16 16  0  0  0  0  0  0  0  0999 V2000
    3.8438   -1.2990    0.0000 R   0  0  0  0  0  1  0  0  0  0  0  0
    2.3438   -1.2990    0.0000 N   0  0  0  0  0  0  0  0  0  0  0  0
    1.5938   -2.5981    0.0000 R   0  0  0  0  0  1  0  0  0  0  0  0
    1.5938    0.0000    0.0000 C   0  0  0  0  0  0  0  0  0  0  0  0
    2.3438    1.2990    0.0000 C   0  0  0  0  0  0  0  0  0  0  0  0
    3.8438    1.2990    0.0000 R   0  0  0  0  0  1  0  0  0  0  0  0
    1.5938    2.5981    0.0000 O   0  0  0  0  0  0  0  0  0  0  0  0
    0.0938    0.0000    0.0000 C   0  0  0  0  0  0  0  0  0  0  0  0
    0.0938    1.5000    0.0000 C   0  0  0  0  0  0  0  0  0  0  0  0
    0.0938   -1.5000    0.0000 C   0  0  0  0  0  0  0  0  0  0  0  0
   -1.4062    0.0000    0.0000 C   0  0  0  0  0  0  0  0  0  0  0  0
   -2.1563   -1.2990    0.0000 C   0  0  0  0  0  0  0  0  0  0  0  0
   -3.6563   -1.2990    0.0000 C   0  0  0  0  0  0  0  0  0  0  0  0
   -4.4062    0.0000    0.0000 C   0  0  0  0  0  0  0  0  0  0  0  0
   -3.6562    1.2990    0.0000 C   0  0  0  0  0  0  0  0  0  0  0  0
   -2.1562    1.2990    0.0000 C   0  0  0  0  0  0  0  0  0  0  0  0
  1  2  1  0
  2  3  1  0
  4  2  1  1
  4  5  1  0
  5  6  1  0
  5  7  2  0
  4  8  1  0
  8  9  1  0
  8 10  1  0
  8 11  1  0
 11 12  2  0
 12 13  1  0
 13 14  2  0
 14 15  1  0
 15 16  2  0
 16 11  1  0
M  ISO  3   1   1   3   3   6   2
M  END
>  <symbol>  (261) 
Phe_bbdiMe

>  <m_abbr>  (261) 
Phe_bbdiMe

>  <m_name>  (261) 
(2S)-2-amino-3-methyl-3-phenylbutanoic acid

>  <m_type>  (261) 
aa

>  <m_subtype>  (261) 
natural

>  <m_Rgroups>  (261) 
[H],[OH],[H]

>  <m_chem_types>  (261) 
1:backbone_n,2:backbone_c,3:backbone_n_mod

>  <m_activation_policy>  (261) 
canonical-sites-v1

$$$$

     RDKit          2D

 20 21  0  0  0  0  0  0  0  0999 V2000
   -4.7310   -1.0642    0.0000 R   0  0  0  0  0  1  0  0  0  0  0  0
   -3.2631   -0.7558    0.0000 N   0  0  0  0  0  0  0  0  0  0  0  0
   -2.2619   -1.8728    0.0000 R   0  0  0  0  0  1  0  0  0  0  0  0
   -2.7962    0.6697    0.0000 C   0  0  0  0  0  0  0  0  0  0  0  0
   -1.3283    0.9782    0.0000 C   0  0  0  0  0  0  0  0  0  0  0  0
   -0.3272   -0.1388    0.0000 C   0  0  0  0  0  0  0  0  0  0  0  0
   -0.6424   -1.6053    0.0000 C   0  0  0  0  0  0  0  0  0  0  0  0
    0.6549   -2.3583    0.0000 N   0  0  0  0  0  0  0  0  0  0  0  0
    0.8082   -3.8504    0.0000 R   0  0  0  0  0  1  0  0  0  0  0  0
    1.7719   -1.3572    0.0000 C   0  0  0  0  0  0  0  0  0  0  0  0
    3.2633   -1.5174    0.0000 C   0  0  0  0  0  0  0  0  0  0  0  0
    4.1478   -0.3059    0.0000 C   0  0  0  0  0  0  0  0  0  0  0  0
    3.5408    1.0658    0.0000 C   0  0  0  0  0  0  0  0  0  0  0  0
    4.4253    2.2773    0.0000 O   0  0  0  0  0  0  0  0  0  0  0  0
    5.9167    2.1171    0.0000 R   0  0  0  0  0  1  0  0  0  0  0  0
    2.0494    1.2260    0.0000 C   0  0  0  0  0  0  0  0  0  0  0  0
    1.1650    0.0146    0.0000 C   0  0  0  0  0  0  0  0  0  0  0  0
   -3.7974    1.7868    0.0000 C   0  0  0  0  0  0  0  0  0  0  0  0
   -5.2653    1.4783    0.0000 R   0  0  0  0  0  1  0  0  0  0  0  0
   -3.3306    3.2123    0.0000 O   0  0  0  0  0  0  0  0  0  0  0  0
  1  2  1  0
  2  3  1  0
  2  4  1  0
  4  5  1  6
  5  6  1  0
  6  7  2  0
  7  8  1  0
  8  9  1  0
  8 10  1  0
 10 11  1  0
 11 12  2  0
 12 13  1  0
 13 14  1  0
 14 15  1  0
 13 16  2  0
 16 17  1  0
  4 18  1  0
 18 19  1  0
 18 20  2  0
 17  6  1  0
 17 10  2  0
M  ISO  5   1   1   3   3   9   4  15   5  19   2
M  END
>  <symbol>  (262) 
Trp_5OH

>  <m_abbr>  (262) 
Trp_5OH

>  <m_name>  (262) 
(2S)-2-amino-3-(5-hydroxy-1H-indol-3-yl)propanoic acid

>  <m_type>  (262) 
aa

>  <m_subtype>  (262) 
natural

>  <m_Rgroups>  (262) 
[H],[OH],[H],[H],[H]

>  <m_chem_types>  (262) 
1:backbone_n,2:backbone_c,3:backbone_n_mod,4:aromatic_nh,5:aryl_phenol_o

>  <m_activation_policy>  (262) 
canonical-sites-v1

$$$$

     RDKit          2D

 19 20  0  0  0  0  0  0  0  0999 V2000
   -3.8068   -1.7884    0.0000 R   0  0  0  0  0  1  0  0  0  0  0  0
   -2.4955   -1.0600    0.0000 N   0  0  0  0  0  0  0  0  0  0  0  0
   -1.2091   -1.8315    0.0000 R   0  0  0  0  0  1  0  0  0  0  0  0
   -2.4706    0.4397    0.0000 C   0  0  0  0  0  0  0  0  0  0  0  0
   -1.1593    1.1681    0.0000 C   0  0  0  0  0  0  0  0  0  0  0  0
    0.1271    0.3966    0.0000 C   0  0  0  0  0  0  0  0  0  0  0  0
    0.2591   -1.0975    0.0000 C   0  0  0  0  0  0  0  0  0  0  0  0
    1.7209   -1.4337    0.0000 N   0  0  0  0  0  0  0  0  0  0  0  0
    2.3082   -2.8140    0.0000 O   0  0  0  0  0  0  0  0  0  0  0  0
    1.4065   -4.0127    0.0000 C   0  0  0  0  0  0  0  0  0  0  0  0
    2.4924   -0.1473    0.0000 C   0  0  0  0  0  0  0  0  0  0  0  0
    3.9646    0.1402    0.0000 C   0  0  0  0  0  0  0  0  0  0  0  0
    4.4517    1.5589    0.0000 C   0  0  0  0  0  0  0  0  0  0  0  0
    3.4667    2.6901    0.0000 C   0  0  0  0  0  0  0  0  0  0  0  0
    1.9945    2.4026    0.0000 C   0  0  0  0  0  0  0  0  0  0  0  0
    1.5073    0.9839    0.0000 C   0  0  0  0  0  0  0  0  0  0  0  0
   -3.7571    1.2112    0.0000 C   0  0  0  0  0  0  0  0  0  0  0  0
   -5.0684    0.4829    0.0000 R   0  0  0  0  0  1  0  0  0  0  0  0
   -3.7322    2.7110    0.0000 O   0  0  0  0  0  0  0  0  0  0  0  0
  1  2  1  0
  2  3  1  0
  2  4  1  0
  4  5  1  6
  5  6  1  0
  6  7  2  0
  7  8  1  0
  8  9  1  0
  9 10  1  0
  8 11  1  0
 11 12  2  0
 12 13  1  0
 13 14  2  0
 14 15  1  0
 15 16  2  0
  4 17  1  0
 17 18  1  0
 17 19  2  0
 16  6  1  0
 16 11  1  0
M  ISO  3   1   1   3   3  18   2
M  END
>  <symbol>  (263) 
Trp_Ome

>  <m_abbr>  (263) 
Trp_Ome

>  <m_name>  (263) 
(2S)-2-amino-3-(1-methoxy-1H-indol-3-yl)propanoic acid

>  <m_type>  (263) 
aa

>  <m_subtype>  (263) 
natural

>  <m_Rgroups>  (263) 
[H],[OH],[H]

>  <m_chem_types>  (263) 
1:backbone_n,2:backbone_c,3:backbone_n_mod

>  <m_activation_policy>  (263) 
canonical-sites-v1

$$$$

     RDKit          2D

 18 18  0  0  0  0  0  0  0  0999 V2000
   -3.4243    2.1465    0.0000 R   0  0  0  0  0  1  0  0  0  0  0  0
   -2.2802    1.1764    0.0000 N   0  0  0  0  0  0  0  0  0  0  0  0
   -0.8681    1.6822    0.0000 R   0  0  0  0  0  1  0  0  0  0  0  0
   -2.5483   -0.2995    0.0000 C   0  0  0  0  0  0  0  0  0  0  0  0
   -1.4042   -1.2695    0.0000 C   0  0  0  0  0  0  0  0  0  0  0  0
    0.0080   -0.7637    0.0000 C   0  0  0  0  0  0  0  0  0  0  0  0
    0.2760    0.7121    0.0000 C   0  0  0  0  0  0  0  0  0  0  0  0
    1.6882    1.2179    0.0000 C   0  0  0  0  0  0  0  0  0  0  0  0
    1.9562    2.6938    0.0000 I   0  0  0  0  0  0  0  0  0  0  0  0
    2.8323    0.2479    0.0000 C   0  0  0  0  0  0  0  0  0  0  0  0
    4.2444    0.7537    0.0000 O   0  0  0  0  0  0  0  0  0  0  0  0
    5.3886   -0.2164    0.0000 R   0  0  0  0  0  1  0  0  0  0  0  0
    2.5643   -1.2280    0.0000 C   0  0  0  0  0  0  0  0  0  0  0  0
    3.7084   -2.1980    0.0000 I   0  0  0  0  0  0  0  0  0  0  0  0
    1.1521   -1.7338    0.0000 C   0  0  0  0  0  0  0  0  0  0  0  0
   -3.9604   -0.8053    0.0000 C   0  0  0  0  0  0  0  0  0  0  0  0
   -5.1045    0.1648    0.0000 R   0  0  0  0  0  1  0  0  0  0  0  0
   -4.2285   -2.2811    0.0000 O   0  0  0  0  0  0  0  0  0  0  0  0
  1  2  1  0
  2  3  1  0
  2  4  1  0
  4  5  1  1
  5  6  1  0
  6  7  2  0
  7  8  1  0
  8  9  1  0
  8 10  2  0
 10 11  1  0
 11 12  1  0
 10 13  1  0
 13 14  1  0
 13 15  2  0
  4 16  1  0
 16 17  1  0
 16 18  2  0
 15  6  1  0
M  ISO  4   1   1   3   3  12   4  17   2
M  END
>  <symbol>  (264) 
Tyr_35diI

>  <m_abbr>  (264) 
Tyr_35diI

>  <m_name>  (264) 
(2S)-2-amino-3-(4-hydroxy-3,5-diiodophenyl)propanoic acid

>  <m_type>  (264) 
aa

>  <m_subtype>  (264) 
natural

>  <m_Rgroups>  (264) 
[H],[OH],[H],[H]

>  <m_chem_types>  (264) 
1:backbone_n,2:backbone_c,3:backbone_n_mod,4:aryl_phenol_o

>  <m_activation_policy>  (264) 
canonical-sites-v1

$$$$

     RDKit          2D

 18 18  0  0  0  0  0  0  0  0999 V2000
   -3.7898    2.0459    0.0000 R   0  0  0  0  0  1  0  0  0  0  0  0
   -2.5342    1.2253    0.0000 N   0  0  0  0  0  0  0  0  0  0  0  0
   -1.1957    1.9023    0.0000 R   0  0  0  0  0  1  0  0  0  0  0  0
   -2.6171   -0.2724    0.0000 C   0  0  0  0  0  0  0  0  0  0  0  0
   -1.3615   -1.0931    0.0000 C   0  0  0  0  0  0  0  0  0  0  0  0
   -0.0230   -0.4160    0.0000 C   0  0  0  0  0  0  0  0  0  0  0  0
    0.0599    1.0817    0.0000 C   0  0  0  0  0  0  0  0  0  0  0  0
    1.3984    1.7587    0.0000 C   0  0  0  0  0  0  0  0  0  0  0  0
    2.6540    0.9381    0.0000 C   0  0  0  0  0  0  0  0  0  0  0  0
    3.9925    1.6151    0.0000 O   0  0  0  0  0  0  0  0  0  0  0  0
    5.2481    0.7945    0.0000 R   0  0  0  0  0  1  0  0  0  0  0  0
    2.5711   -0.5596    0.0000 C   0  0  0  0  0  0  0  0  0  0  0  0
    3.8267   -1.3803    0.0000 O   0  0  0  0  0  0  0  0  0  0  0  0
    3.7438   -2.8780    0.0000 R   0  0  0  0  0  1  0  0  0  0  0  0
    1.2326   -1.2367    0.0000 C   0  0  0  0  0  0  0  0  0  0  0  0
   -3.9556   -0.9495    0.0000 C   0  0  0  0  0  0  0  0  0  0  0  0
   -5.2112   -0.1288    0.0000 R   0  0  0  0  0  1  0  0  0  0  0  0
   -4.0385   -2.4472    0.0000 O   0  0  0  0  0  0  0  0  0  0  0  0
  1  2  1  0
  2  3  1  0
  2  4  1  0
  4  5  1  1
  5  6  1  0
  6  7  1  0
  7  8  2  0
  8  9  1  0
  9 10  1  0
 10 11  1  0
  9 12  2  0
 12 13  1  0
 13 14  1  0
 12 15  1  0
  4 16  1  0
 16 17  1  0
 16 18  2  0
 15  6  2  0
M  ISO  5   1   1   3   3  11   4  14   5  17   2
M  END
>  <symbol>  (265) 
Tyr_3OH

>  <m_abbr>  (265) 
Tyr_3OH

>  <m_name>  (265) 
(2S)-2-amino-3-(3,4-dihydroxyphenyl)propanoic acid

>  <m_type>  (265) 
aa

>  <m_subtype>  (265) 
natural

>  <m_Rgroups>  (265) 
[H],[OH],[H],[H],[H]

>  <m_chem_types>  (265) 
1:backbone_n,2:backbone_c,3:backbone_n_mod,4:aryl_phenol_o,5:aryl_phenol_o

>  <m_activation_policy>  (265) 
canonical-sites-v1

$$$$

     RDKit          2D

 16 16  0  0  0  0  0  0  0  0999 V2000
   -3.0227    2.2431    0.0000 R   0  0  0  0  0  1  0  0  0  0  0  0
   -1.8997    1.2486    0.0000 N   0  0  0  0  0  0  0  0  0  0  0  0
   -0.4770    1.7239    0.0000 R   0  0  0  0  0  1  0  0  0  0  0  0
   -2.1995   -0.2211    0.0000 C   0  0  0  0  0  0  0  0  0  0  0  0
   -1.0766   -1.2156    0.0000 C   0  0  0  0  0  0  0  0  0  0  0  0
    0.3462   -0.7404    0.0000 C   0  0  0  0  0  0  0  0  0  0  0  0
    0.6459    0.7294    0.0000 C   0  0  0  0  0  0  0  0  0  0  0  0
    2.0687    1.2046    0.0000 C   0  0  0  0  0  0  0  0  0  0  0  0
    3.1916    0.2101    0.0000 C   0  0  0  0  0  0  0  0  0  0  0  0
    4.6143    0.6854    0.0000 O   0  0  0  0  0  0  0  0  0  0  0  0
    5.7373   -0.3091    0.0000 C   0  0  0  0  0  0  0  0  0  0  0  0
    2.8918   -1.2596    0.0000 C   0  0  0  0  0  0  0  0  0  0  0  0
    1.4691   -1.7348    0.0000 C   0  0  0  0  0  0  0  0  0  0  0  0
   -3.6222   -0.6964    0.0000 C   0  0  0  0  0  0  0  0  0  0  0  0
   -4.7452    0.2981    0.0000 R   0  0  0  0  0  1  0  0  0  0  0  0
   -3.9220   -2.1661    0.0000 O   0  0  0  0  0  0  0  0  0  0  0  0
  1  2  1  0
  2  3  1  0
  2  4  1  0
  4  5  1  1
  5  6  1  0
  6  7  1  0
  7  8  2  0
  8  9  1  0
  9 10  1  0
 10 11  1  0
  9 12  2  0
 12 13  1  0
  4 14  1  0
 14 15  1  0
 14 16  2  0
 13  6  2  0
M  ISO  3   1   1   3   3  15   2
M  END
>  <symbol>  (266) 
Tyr_Me

>  <m_abbr>  (266) 
Tyr_Me

>  <m_name>  (266) 
(2S)-2-amino-3-(4-methoxyphenyl)propanoic acid

>  <m_type>  (266) 
aa

>  <m_subtype>  (266) 
natural

>  <m_Rgroups>  (266) 
[H],[OH],[H]

>  <m_chem_types>  (266) 
1:backbone_n,2:backbone_c,3:backbone_n_mod

>  <m_activation_policy>  (266) 
canonical-sites-v1

$$$$

     RDKit          2D

 19 19  0  0  0  0  0  0  0  0999 V2000
   -4.0746    2.1896    0.0000 R   0  0  0  0  0  1  0  0  0  0  0  0
   -2.9144    1.2389    0.0000 N   0  0  0  0  0  0  0  0  0  0  0  0
   -1.5109    1.7684    0.0000 R   0  0  0  0  0  1  0  0  0  0  0  0
   -3.1576   -0.2413    0.0000 C   0  0  0  0  0  0  0  0  0  0  0  0
   -1.9973   -1.1920    0.0000 C   0  0  0  0  0  0  0  0  0  0  0  0
   -0.5939   -0.6625    0.0000 C   0  0  0  0  0  0  0  0  0  0  0  0
   -0.3507    0.8177    0.0000 C   0  0  0  0  0  0  0  0  0  0  0  0
    1.0528    1.3471    0.0000 C   0  0  0  0  0  0  0  0  0  0  0  0
    2.2130    0.3964    0.0000 C   0  0  0  0  0  0  0  0  0  0  0  0
    3.6165    0.9259    0.0000 O   0  0  0  0  0  0  0  0  0  0  0  0
    4.7767   -0.0248    0.0000 P   0  0  0  0  0  0  0  0  0  0  0  0
    5.7274    1.1355    0.0000 R   0  0  0  0  0  1  0  0  0  0  0  0
    3.8261   -1.1850    0.0000 R   0  0  0  0  0  1  0  0  0  0  0  0
    5.9370   -0.9755    0.0000 O   0  0  0  0  0  0  0  0  0  0  0  0
    1.9698   -1.0837    0.0000 C   0  0  0  0  0  0  0  0  0  0  0  0
    0.5664   -1.6132    0.0000 C   0  0  0  0  0  0  0  0  0  0  0  0
   -4.5610   -0.7707    0.0000 C   0  0  0  0  0  0  0  0  0  0  0  0
   -5.7213    0.1800    0.0000 R   0  0  0  0  0  1  0  0  0  0  0  0
   -4.8042   -2.2509    0.0000 O   0  0  0  0  0  0  0  0  0  0  0  0
  1  2  1  0
  2  3  1  0
  2  4  1  0
  4  5  1  1
  5  6  1  0
  6  7  1  0
  7  8  2  0
  8  9  1  0
  9 10  1  0
 10 11  1  0
 11 12  1  0
 11 13  1  0
 11 14  2  0
  9 15  2  0
 15 16  1  0
  4 17  1  0
 17 18  1  0
 17 19  2  0
 16  6  2  0
M  ISO  5   1   1   3   3  12   4  13   5  18   2
M  END
>  <symbol>  (1)
Tyr_PO3H2

>  <m_abbr>  (1)
Tyr_PO3H2

>  <m_name>  (1)
(2S)-2-amino-3-[4-(phosphonooxy)phenyl]propanoic acid

>  <m_type>  (1)
aa

>  <m_subtype>  (1)
natural

>  <m_Rgroups>  (1)
[H],[OH],[H],[OH],[OH]

>  <m_chem_types>  (1)
1:backbone_n,2:backbone_c,3:backbone_n_mod,4:phosphate_p,5:phosphate_p

>  <m_activation_policy>  (1)
canonical-sites-v1

$$$$

     RDKit          2D

 11 11  0  0  0  0  0  0  0  0999 V2000
   -1.0596   -2.4555    0.0000 R   0  0  0  0  0  1  0  0  0  0  0  0
   -0.2576   -1.1879    0.0000 N   0  0  0  0  0  0  0  0  0  0  0  0
    1.2393   -1.0917    0.0000 C   0  0  0  0  0  0  0  0  0  0  0  0
    1.6103    0.3617    0.0000 C   0  0  0  0  0  0  0  0  0  0  0  0
    3.0042    0.9158    0.0000 O   0  0  0  0  0  0  0  0  0  0  0  0
    4.1811   -0.0143    0.0000 R   0  0  0  0  0  1  0  0  0  0  0  0
    0.3427    1.1637    0.0000 C   0  0  0  0  0  0  0  0  0  0  0  0
   -0.8117    0.2060    0.0000 C   0  0  0  0  0  0  0  0  0  0  0  0
   -2.2651    0.5770    0.0000 C   0  0  0  0  0  0  0  0  0  0  0  0
   -2.6705    2.0212    0.0000 R   0  0  0  0  0  1  0  0  0  0  0  0
   -3.3131   -0.4961    0.0000 O   0  0  0  0  0  0  0  0  0  0  0  0
  1  2  1  0
  2  3  1  0
  3  4  1  0
  4  5  1  0
  5  6  1  0
  4  7  1  0
  7  8  1  0
  8  9  1  6
  9 10  1  0
  9 11  2  0
  8  2  1  0
M  ISO  3   1   1   6   4  10   2
M  END
>  <symbol>  (268) 
xiHyp

>  <m_abbr>  (268) 
xiHyp

>  <m_name>  (268) 
(2S)-4-hydroxypyrrolidine-2-carboxylic acid

>  <m_type>  (268) 
aa

>  <m_subtype>  (268) 
natural

>  <m_Rgroups>  (268) 
[H],[OH],None,[H]

>  <m_chem_types>  (268) 
1:backbone_n,2:backbone_c,4:hydroxyl

>  <m_activation_policy>  (268) 
canonical-sites-v1

$$$$

     RDKit          2D

 11 10  0  0  0  0  0  0  0  0999 V2000
   -2.0616   -1.9640    0.0000 R   0  0  0  0  0  1  0  0  0  0  0  0
   -0.6443   -1.4730    0.0000 N   0  0  0  0  0  0  0  0  0  0  0  0
    0.4896   -2.4550    0.0000 R   0  0  0  0  0  1  0  0  0  0  0  0
   -0.3608    0.0000    0.0000 C   0  0  0  0  0  0  0  0  0  0  0  0
   -1.4947    0.9820    0.0000 C   0  0  0  0  0  0  0  0  0  0  0  0
   -1.2112    2.4550    0.0000 R   0  0  0  0  0  1  0  0  0  0  0  0
   -2.9120    0.4910    0.0000 O   0  0  0  0  0  0  0  0  0  0  0  0
    1.0566    0.4910    0.0000 C   0  0  0  0  0  0  0  0  0  0  0  0
    1.3401    1.9640    0.0000 C   0  0  0  0  0  0  0  0  0  0  0  0
    2.1905   -0.4910    0.0000 O   0  0  0  0  0  0  0  0  0  0  0  0
    3.6078   -0.0000    0.0000 R   0  0  0  0  0  1  0  0  0  0  0  0
  1  2  1  0
  2  3  1  0
  2  4  1  0
  4  5  1  0
  5  6  1  0
  5  7  2  0
  4  8  1  6
  8  9  1  0
  8 10  1  0
 10 11  1  0
M  ISO  4   1   1   3   3   6   2  11   4
M  END
>  <symbol>  (269) 
xiThr

>  <m_abbr>  (269) 
xiThr

>  <m_name>  (269) 
(2S)-2-amino-3-hydroxybutanoic acid

>  <m_type>  (269) 
aa

>  <m_subtype>  (269) 
natural

>  <m_Rgroups>  (269) 
[H],[OH],[H],[H]

>  <m_chem_types>  (269) 
1:backbone_n,2:backbone_c,3:backbone_n_mod,4:hydroxyl

>  <m_activation_policy>  (269) 
canonical-sites-v1

$$$$

     RDKit          2D

 17 17  0  0  0  0  0  0  0  0999 V2000
   -0.1697    1.1304    0.0000 R   0  0  0  0  0  1  0  0  0  0  0  0
   -1.1531    1.1688    0.0000 N   0  0  0  0  0  0  0  0  0  0  0  0
   -1.5100    2.6257    0.0000 R   0  0  0  0  0  1  0  0  0  0  0  0
   -2.2364    0.1312    0.0000 C   0  0  0  0  0  0  0  0  0  0  0  0
   -3.2740    1.2145    0.0000 C   0  0  0  0  0  0  0  0  0  0  0  0
   -1.1989   -0.9521    0.0000 C   0  0  0  0  0  0  0  0  0  0  0  0
    0.2580   -0.5952    0.0000 C   0  0  0  0  0  0  0  0  0  0  0  0
    0.6774    0.8450    0.0000 C   0  0  0  0  0  0  0  0  0  0  0  0
    2.1343    1.2019    0.0000 C   0  0  0  0  0  0  0  0  0  0  0  0
    3.1719    0.1186    0.0000 C   0  0  0  0  0  0  0  0  0  0  0  0
    4.6288    0.4755    0.0000 O   0  0  0  0  0  0  0  0  0  0  0  0
    5.6663   -0.6078    0.0000 R   0  0  0  0  0  1  0  0  0  0  0  0
    2.7525   -1.3216    0.0000 C   0  0  0  0  0  0  0  0  0  0  0  0
    1.2955   -1.6785    0.0000 C   0  0  0  0  0  0  0  0  0  0  0  0
   -3.3197   -0.9063    0.0000 C   0  0  0  0  0  0  0  0  0  0  0  0
   -4.7599   -0.4869    0.0000 R   0  0  0  0  0  1  0  0  0  0  0  0
   -2.9629   -2.3632    0.0000 O   0  0  0  0  0  0  0  0  0  0  0  0
  1  2  1  0
  2  3  1  0
  2  4  1  0
  4  5  1  6
  4  6  1  0
  6  7  1  0
  7  8  1  0
  8  9  2  0
  9 10  1  0
 10 11  1  0
 11 12  1  0
 10 13  2  0
 13 14  1  0
  4 15  1  0
 15 16  1  0
 15 17  2  0
 14  7  2  0
M  ISO  4   1   1   3   3  12   4  16   2
M  END
>  <symbol>  (270) 
aMeTyr

>  <m_abbr>  (270) 
aMeTyr

>  <m_name>  (270) 
(2S)-2-amino-3-(4-hydroxyphenyl)-2-methylpropanoic acid

>  <m_type>  (270) 
aa

>  <m_subtype>  (270) 
natural

>  <m_Rgroups>  (270) 
[H],[OH],[H],[H]

>  <m_chem_types>  (270) 
1:backbone_n,2:backbone_c,3:backbone_n_mod,4:aryl_phenol_o

>  <m_activation_policy>  (270) 
canonical-sites-v1

$$$$

     RDKit          2D

 16 15  0  0  0  0  0  0  0  0999 V2000
   -5.6805   -0.2015    0.0000 R   0  0  0  0  0  1  0  0  0  0  0  0
   -4.3675   -0.9268    0.0000 N   0  0  0  0  0  0  0  0  0  0  0  0
   -4.3390   -2.4265    0.0000 R   0  0  0  0  0  1  0  0  0  0  0  0
   -3.0829   -0.1523    0.0000 C   0  0  0  0  0  0  0  0  0  0  0  0
   -1.7699   -0.8775    0.0000 C   0  0  0  0  0  0  0  0  0  0  0  0
   -0.4853   -0.1030    0.0000 C   0  0  0  0  0  0  0  0  0  0  0  0
    0.8278   -0.8282    0.0000 C   0  0  0  0  0  0  0  0  0  0  0  0
    2.1123   -0.0537    0.0000 C   0  0  0  0  0  0  0  0  0  0  0  0
    3.4254   -0.7789    0.0000 C   0  0  0  0  0  0  0  0  0  0  0  0
    4.7099   -0.0044    0.0000 C   0  0  0  0  0  0  0  0  0  0  0  0
    4.6815    1.4953    0.0000 O   0  0  0  0  0  0  0  0  0  0  0  0
    6.0230   -0.7296    0.0000 C   0  0  0  0  0  0  0  0  0  0  0  0
    7.3076    0.0449    0.0000 C   0  0  0  0  0  0  0  0  0  0  0  0
   -3.1113    1.3475    0.0000 C   0  0  0  0  0  0  0  0  0  0  0  0
   -1.8268    2.1220    0.0000 R   0  0  0  0  0  1  0  0  0  0  0  0
   -4.4244    2.0727    0.0000 O   0  0  0  0  0  0  0  0  0  0  0  0
  1  2  1  0
  2  3  1  0
  2  4  1  0
  4  5  1  6
  5  6  1  0
  6  7  1  0
  7  8  1  0
  8  9  1  0
  9 10  1  0
 10 11  2  0
 10 12  1  0
 12 13  1  0
  4 14  1  0
 14 15  1  0
 14 16  2  0
M  ISO  3   1   1   3   3  15   2
M  END
>  <symbol>  (271) 
Aoda

>  <m_abbr>  (271) 
Aoda

>  <m_name>  (271) 
(2S)-2-amino-8-oxodecanoic acid

>  <m_type>  (271) 
aa

>  <m_subtype>  (271) 
natural

>  <m_Rgroups>  (271) 
[H],[OH],[H]

>  <m_chem_types>  (271) 
1:backbone_n,2:backbone_c,3:backbone_n_mod

>  <m_activation_policy>  (271) 
canonical-sites-v1

$$$$

     RDKit          2D

 22 23  0  0  0  0  0  0  0  0999 V2000
   -5.0794    1.9915    0.0000 R   0  0  0  0  0  1  0  0  0  0  0  0
   -3.8631    1.1136    0.0000 N   0  0  0  0  0  0  0  0  0  0  0  0
   -2.4947    1.7279    0.0000 R   0  0  0  0  0  1  0  0  0  0  0  0
   -4.0153   -0.3787    0.0000 C   0  0  0  0  0  0  0  0  0  0  0  0
   -2.7990   -1.2566    0.0000 C   0  0  0  0  0  0  0  0  0  0  0  0
   -1.4306   -0.6423    0.0000 C   0  0  0  0  0  0  0  0  0  0  0  0
   -1.2784    0.8500    0.0000 C   0  0  0  0  0  0  0  0  0  0  0  0
    0.0900    1.4643    0.0000 C   0  0  0  0  0  0  0  0  0  0  0  0
    1.3062    0.5864    0.0000 C   0  0  0  0  0  0  0  0  0  0  0  0
    2.6746    1.2008    0.0000 C   0  0  0  0  0  0  0  0  0  0  0  0
    2.8268    2.6930    0.0000 O   0  0  0  0  0  0  0  0  0  0  0  0
    3.8909    0.3228    0.0000 C   0  0  0  0  0  0  0  0  0  0  0  0
    3.7387   -1.1694    0.0000 C   0  0  0  0  0  0  0  0  0  0  0  0
    4.9550   -2.0473    0.0000 C   0  0  0  0  0  0  0  0  0  0  0  0
    6.3234   -1.4330    0.0000 C   0  0  0  0  0  0  0  0  0  0  0  0
    6.4756    0.0593    0.0000 C   0  0  0  0  0  0  0  0  0  0  0  0
    5.2593    0.9372    0.0000 C   0  0  0  0  0  0  0  0  0  0  0  0
    1.1540   -0.9058    0.0000 C   0  0  0  0  0  0  0  0  0  0  0  0
   -0.2144   -1.5202    0.0000 C   0  0  0  0  0  0  0  0  0  0  0  0
   -5.3837   -0.9930    0.0000 C   0  0  0  0  0  0  0  0  0  0  0  0
   -6.6000   -0.1151    0.0000 R   0  0  0  0  0  1  0  0  0  0  0  0
   -5.5359   -2.4853    0.0000 O   0  0  0  0  0  0  0  0  0  0  0  0
  1  2  1  0
  2  3  1  0
  2  4  1  0
  4  5  1  1
  5  6  1  0
  6  7  1  0
  7  8  2  0
  8  9  1  0
  9 10  1  0
 10 11  2  0
 10 12  1  0
 12 13  2  0
 13 14  1  0
 14 15  2  0
 15 16  1  0
 16 17  2  0
  9 18  2  0
 18 19  1  0
  4 20  1  0
 20 21  1  0
 20 22  2  0
 19  6  2  0
 17 12  1  0
M  ISO  3   1   1   3   3  21   2
M  END
>  <symbol>  (272) 
Bpa

>  <m_abbr>  (272) 
Bpa

>  <m_name>  (272) 
(2S)-2-amino-3-(4-benzoylphenyl)propanoic acid

>  <m_type>  (272) 
aa

>  <m_subtype>  (272) 
natural

>  <m_Rgroups>  (272) 
[H],[OH],[H]

>  <m_chem_types>  (272) 
1:backbone_n,2:backbone_c,3:backbone_n_mod

>  <m_activation_policy>  (272) 
canonical-sites-v1

$$$$

     RDKit          2D

 10  9  0  0  0  0  0  0  0  0999 V2000
   -1.5052    2.4340    0.0000 R   0  0  0  0  0  1  0  0  0  0  0  0
   -1.5385    0.9344    0.0000 N   0  0  0  0  0  0  0  0  0  0  0  0
   -2.8539    0.2134    0.0000 R   0  0  0  0  0  1  0  0  0  0  0  0
   -0.2564    0.1557    0.0000 C   0  0  0  0  0  0  0  0  0  0  0  0
    1.0589    0.8767    0.0000 C   0  0  0  0  0  0  0  0  0  0  0  0
    2.3410    0.0981    0.0000 S   0  0  0  0  0  0  0  0  0  0  0  0
    3.6564    0.8191    0.0000 C   0  0  0  0  0  0  0  0  0  0  0  0
   -0.2897   -1.3439    0.0000 C   0  0  0  0  0  0  0  0  0  0  0  0
    0.9924   -2.1225    0.0000 R   0  0  0  0  0  1  0  0  0  0  0  0
   -1.6051   -2.0649    0.0000 O   0  0  0  0  0  0  0  0  0  0  0  0
  1  2  1  0
  2  3  1  0
  2  4  1  0
  4  5  1  1
  5  6  1  0
  6  7  1  0
  4  8  1  0
  8  9  1  0
  8 10  2  0
M  ISO  3   1   1   3   3   9   2
M  END
>  <symbol>  (273) 
Cys_Me

>  <m_abbr>  (273) 
Cys_Me

>  <m_name>  (273) 
(2R)-2-amino-3-(methylsulfanyl)propanoic acid

>  <m_type>  (273) 
aa

>  <m_subtype>  (273) 
natural

>  <m_Rgroups>  (273) 
[H],[OH],[H]

>  <m_chem_types>  (273) 
1:backbone_n,2:backbone_c,3:backbone_n_mod

>  <m_activation_policy>  (273) 
canonical-sites-v1

$$$$

     RDKit          2D

 20 21  0  0  0  0  0  0  0  0999 V2000
    1.2990   -3.8250    0.0000 R   0  0  0  0  0  1  0  0  0  0  0  0
    1.2990   -2.3250    0.0000 N   0  0  0  0  0  0  0  0  0  0  0  0
    2.5981   -1.5750    0.0000 R   0  0  0  0  0  1  0  0  0  0  0  0
    0.0000   -1.5750    0.0000 C   0  0  0  0  0  0  0  0  0  0  0  0
   -1.2990   -2.3250    0.0000 C   0  0  0  0  0  0  0  0  0  0  0  0
   -1.2990   -3.8250    0.0000 R   0  0  0  0  0  1  0  0  0  0  0  0
   -2.5981   -1.5750    0.0000 O   0  0  0  0  0  0  0  0  0  0  0  0
   -0.0000   -0.0750    0.0000 C   0  0  0  0  0  0  0  0  0  0  0  0
    1.2990    0.6750    0.0000 C   0  0  0  0  0  0  0  0  0  0  0  0
    2.5981   -0.0750    0.0000 C   0  0  0  0  0  0  0  0  0  0  0  0
    3.8971    0.6750    0.0000 C   0  0  0  0  0  0  0  0  0  0  0  0
    3.8971    2.1750    0.0000 C   0  0  0  0  0  0  0  0  0  0  0  0
    2.5981    2.9250    0.0000 C   0  0  0  0  0  0  0  0  0  0  0  0
    1.2990    2.1750    0.0000 C   0  0  0  0  0  0  0  0  0  0  0  0
   -1.2990    0.6750    0.0000 C   0  0  0  0  0  0  0  0  0  0  0  0
   -1.2990    2.1750    0.0000 C   0  0  0  0  0  0  0  0  0  0  0  0
   -2.5981    2.9250    0.0000 C   0  0  0  0  0  0  0  0  0  0  0  0
   -3.8971    2.1750    0.0000 C   0  0  0  0  0  0  0  0  0  0  0  0
   -3.8971    0.6750    0.0000 C   0  0  0  0  0  0  0  0  0  0  0  0
   -2.5981   -0.0750    0.0000 C   0  0  0  0  0  0  0  0  0  0  0  0
  1  2  1  0
  2  3  1  0
  2  4  1  0
  4  5  1  0
  5  6  1  0
  5  7  2  0
  4  8  1  6
  8  9  1  0
  9 10  2  0
 10 11  1  0
 11 12  2  0
 12 13  1  0
 13 14  2  0
  8 15  1  0
 15 16  2  0
 16 17  1  0
 17 18  2  0
 18 19  1  0
 19 20  2  0
 14  9  1  0
 20 15  1  0
M  ISO  3   1   1   3   3   6   2
M  END
>  <symbol>  (274) 
Dip

>  <m_abbr>  (274) 
Dip

>  <m_name>  (274) 
(2S)-2-amino-3,3-diphenylpropanoic acid

>  <m_type>  (274) 
aa

>  <m_subtype>  (274) 
natural

>  <m_Rgroups>  (274) 
[H],[OH],[H]

>  <m_chem_types>  (274) 
1:backbone_n,2:backbone_c,3:backbone_n_mod

>  <m_activation_policy>  (274) 
canonical-sites-v1

$$$$

     RDKit          2D

 20 19  0  0  0  0  0  0  0  0999 V2000
   -5.9798   -1.0257    0.0000 R   0  0  0  0  0  1  0  0  0  0  0  0
   -4.5040   -1.2939    0.0000 N   0  0  0  0  0  0  0  0  0  0  0  0
   -3.9984   -2.7061    0.0000 R   0  0  0  0  0  1  0  0  0  0  0  0
   -3.5338   -0.1499    0.0000 C   0  0  0  0  0  0  0  0  0  0  0  0
   -2.0579   -0.4182    0.0000 C   0  0  0  0  0  0  0  0  0  0  0  0
   -1.0877    0.7258    0.0000 C   0  0  0  0  0  0  0  0  0  0  0  0
    0.3881    0.4576    0.0000 C   0  0  0  0  0  0  0  0  0  0  0  0
    1.3583    1.6016    0.0000 C   0  0  0  0  0  0  0  0  0  0  0  0
    2.8341    1.3333    0.0000 N   0  0  0  0  0  0  0  0  0  0  0  0
    3.8043    2.4773    0.0000 R   0  0  0  0  0  1  0  0  0  0  0  0
    3.3397   -0.0789    0.0000 C   0  0  0  0  0  0  0  0  0  0  0  0
    4.8155   -0.3471    0.0000 N   0  0  0  0  0  0  0  0  0  0  0  0
    5.3212   -1.7593    0.0000 R   0  0  0  0  0  1  0  0  0  0  0  0
    5.7858    0.7969    0.0000 R   0  0  0  0  0  1  0  0  0  0  0  0
    2.3695   -1.2229    0.0000 N   0  0  0  0  0  0  0  0  0  0  0  0
    2.8751   -2.6351    0.0000 R   0  0  0  0  0  1  0  0  0  0  0  0
    0.8937   -0.9546    0.0000 R   0  0  0  0  0  1  0  0  0  0  0  0
   -4.0394    1.2623    0.0000 C   0  0  0  0  0  0  0  0  0  0  0  0
   -3.0692    2.4063    0.0000 R   0  0  0  0  0  1  0  0  0  0  0  0
   -5.5152    1.5305    0.0000 O   0  0  0  0  0  0  0  0  0  0  0  0
  1  2  1  0
  2  3  1  0
  2  4  1  0
  4  5  1  6
  5  6  1  0
  6  7  1  0
  7  8  1  0
  8  9  1  0
  9 10  1  0
  9 11  1  0
 11 12  1  0
 12 13  1  0
 12 14  1  0
 11 15  1  0
 15 16  1  0
 15 17  1  0
  4 18  1  0
 18 19  1  0
 18 20  2  0
M  ISO  8   1   1   3   3  10   8  13   4  14   5  16   6  17   7  19   2
M  END
>  <symbol>  (275) 
hArg

>  <m_abbr>  (275) 
hArg

>  <m_name>  (275) 
(2S)-2-amino-6-[(diaminomethyl)amino]hexanoic acid

>  <m_type>  (275) 
aa

>  <m_subtype>  (275) 
natural

>  <m_Rgroups>  (275) 
[H],[OH],[H],[H],[H],[H],[H],[H]

>  <m_chem_types>  (275) 
1:backbone_n,2:backbone_c,3:backbone_n_mod,4:amine_primary,5:amine_primary,6:amine_primary,7:amine_primary,8:amine_secondary

>  <m_activation_policy>  (275) 
canonical-sites-v1

$$$$

     RDKit          2D

 20 21  0  0  0  0  0  0  0  0999 V2000
   -4.3280    2.4055    0.0000 R   0  0  0  0  0  1  0  0  0  0  0  0
   -3.2840    1.3284    0.0000 N   0  0  0  0  0  0  0  0  0  0  0  0
   -1.8292    1.6939    0.0000 R   0  0  0  0  0  1  0  0  0  0  0  0
   -3.6949   -0.1142    0.0000 C   0  0  0  0  0  0  0  0  0  0  0  0
   -2.6509   -1.1913    0.0000 C   0  0  0  0  0  0  0  0  0  0  0  0
   -1.1961   -0.8258    0.0000 C   0  0  0  0  0  0  0  0  0  0  0  0
   -0.0453   -1.7879    0.0000 C   0  0  0  0  0  0  0  0  0  0  0  0
    1.2253   -0.9907    0.0000 N   0  0  0  0  0  0  0  0  0  0  0  0
    2.6171   -1.5501    0.0000 C   0  0  0  0  0  0  0  0  0  0  0  0
    3.7974   -0.6245    0.0000 C   0  0  0  0  0  0  0  0  0  0  0  0
    5.1892   -1.1838    0.0000 C   0  0  0  0  0  0  0  0  0  0  0  0
    6.3696   -0.2582    0.0000 C   0  0  0  0  0  0  0  0  0  0  0  0
    6.1581    1.2268    0.0000 C   0  0  0  0  0  0  0  0  0  0  0  0
    4.7663    1.7862    0.0000 C   0  0  0  0  0  0  0  0  0  0  0  0
    3.5860    0.8606    0.0000 C   0  0  0  0  0  0  0  0  0  0  0  0
    0.8598    0.4641    0.0000 C   0  0  0  0  0  0  0  0  0  0  0  0
   -0.6367    0.5660    0.0000 N   0  0  0  0  0  0  0  0  0  0  0  0
   -5.1496   -0.4798    0.0000 C   0  0  0  0  0  0  0  0  0  0  0  0
   -6.1936    0.5974    0.0000 R   0  0  0  0  0  1  0  0  0  0  0  0
   -5.5605   -1.9224    0.0000 O   0  0  0  0  0  0  0  0  0  0  0  0
  1  2  1  0
  2  3  1  0
  2  4  1  0
  4  5  1  1
  5  6  1  0
  6  7  2  0
  7  8  1  0
  8  9  1  0
  9 10  1  0
 10 11  2  0
 11 12  1  0
 12 13  2  0
 13 14  1  0
 14 15  2  0
  8 16  1  0
 16 17  2  0
  4 18  1  0
 18 19  1  0
 18 20  2  0
 17  6  1  0
 15 10  1  0
M  ISO  3   1   1   3   3  19   2
M  END
>  <symbol>  (276) 
His_1Bn

>  <m_abbr>  (276) 
His_1Bn

>  <m_name>  (276) 
(2S)-2-amino-3-(1-benzyl-1H-imidazol-4-yl)propanoic acid

>  <m_type>  (276) 
aa

>  <m_subtype>  (276) 
natural

>  <m_Rgroups>  (276) 
[H],[OH],[H]

>  <m_chem_types>  (276) 
1:backbone_n,2:backbone_c,3:backbone_n_mod

>  <m_activation_policy>  (276) 
canonical-sites-v1

$$$$

     RDKit          2D

 14 14  0  0  0  0  0  0  0  0999 V2000
   -2.5982    2.0750    0.0000 R   0  0  0  0  0  1  0  0  0  0  0  0
   -1.3182    1.2930    0.0000 N   0  0  0  0  0  0  0  0  0  0  0  0
   -0.0009    2.0105    0.0000 R   0  0  0  0  0  1  0  0  0  0  0  0
   -1.3555   -0.2066    0.0000 C   0  0  0  0  0  0  0  0  0  0  0  0
   -0.0755   -0.9886    0.0000 C   0  0  0  0  0  0  0  0  0  0  0  0
    1.2418   -0.2711    0.0000 C   0  0  0  0  0  0  0  0  0  0  0  0
    1.4356    1.2163    0.0000 C   0  0  0  0  0  0  0  0  0  0  0  0
    2.9102    1.4916    0.0000 N   0  0  0  0  0  0  0  0  0  0  0  0
    3.6276    0.1743    0.0000 C   0  0  0  0  0  0  0  0  0  0  0  0
    2.5966   -0.9151    0.0000 N   0  0  0  0  0  0  0  0  0  0  0  0
    2.8719   -2.3896    0.0000 C   0  0  0  0  0  0  0  0  0  0  0  0
   -2.6727   -0.9241    0.0000 C   0  0  0  0  0  0  0  0  0  0  0  0
   -3.9527   -0.1420    0.0000 R   0  0  0  0  0  1  0  0  0  0  0  0
   -2.7100   -2.4236    0.0000 O   0  0  0  0  0  0  0  0  0  0  0  0
  1  2  1  0
  2  3  1  0
  2  4  1  0
  4  5  1  1
  5  6  1  0
  6  7  2  0
  7  8  1  0
  8  9  2  0
  9 10  1  0
 10 11  1  0
  4 12  1  0
 12 13  1  0
 12 14  2  0
 10  6  1  0
M  ISO  3   1   1   3   3  13   2
M  END
>  <symbol>  (277) 
His_3Me

>  <m_abbr>  (277) 
His_3Me

>  <m_name>  (277) 
(2S)-2-amino-3-(1-methyl-1H-imidazol-5-yl)propanoic acid

>  <m_type>  (277) 
aa

>  <m_subtype>  (277) 
natural

>  <m_Rgroups>  (277) 
[H],[OH],[H]

>  <m_chem_types>  (277) 
1:backbone_n,2:backbone_c,3:backbone_n_mod

>  <m_activation_policy>  (277) 
canonical-sites-v1

$$$$

     RDKit          2D

 16 15  0  0  0  0  0  0  0  0999 V2000
   -4.9332   -0.6082    0.0000 R   0  0  0  0  0  1  0  0  0  0  0  0
   -3.5074   -1.0743    0.0000 N   0  0  0  0  0  0  0  0  0  0  0  0
   -3.1982   -2.5421    0.0000 R   0  0  0  0  0  1  0  0  0  0  0  0
   -2.3909   -0.0726    0.0000 C   0  0  0  0  0  0  0  0  0  0  0  0
   -0.9652   -0.5387    0.0000 C   0  0  0  0  0  0  0  0  0  0  0  0
    0.1514    0.4630    0.0000 C   0  0  0  0  0  0  0  0  0  0  0  0
    1.5771   -0.0031    0.0000 C   0  0  0  0  0  0  0  0  0  0  0  0
    2.6936    0.9986    0.0000 C   0  0  0  0  0  0  0  0  0  0  0  0
    4.1194    0.5326    0.0000 N   0  0  0  0  0  0  0  0  0  0  0  0
    5.2359    1.5343    0.0000 R   0  0  0  0  0  1  0  0  0  0  0  0
    4.4286   -0.9352    0.0000 R   0  0  0  0  0  1  0  0  0  0  0  0
    1.8864   -1.4708    0.0000 O   0  0  0  0  0  0  0  0  0  0  0  0
    3.3121   -1.9369    0.0000 R   0  0  0  0  0  1  0  0  0  0  0  0
   -2.7001    1.3952    0.0000 C   0  0  0  0  0  0  0  0  0  0  0  0
   -1.5836    2.3969    0.0000 R   0  0  0  0  0  1  0  0  0  0  0  0
   -4.1259    1.8613    0.0000 O   0  0  0  0  0  0  0  0  0  0  0  0
  1  2  1  0
  2  3  1  0
  2  4  1  0
  4  5  1  6
  5  6  1  0
  6  7  1  0
  7  8  1  0
  8  9  1  0
  9 10  1  0
  9 11  1  0
  7 12  1  0
 12 13  1  0
  4 14  1  0
 14 15  1  0
 14 16  2  0
M  ISO  6   1   1   3   3  10   4  11   5  13   6  15   2
M  END
>  <symbol>  (278) 
Hyl_5xi

>  <m_abbr>  (278) 
Hyl_5xi

>  <m_name>  (278) 
(2S)-2,6-diamino-5-hydroxyhexanoic acid

>  <m_type>  (278) 
aa

>  <m_subtype>  (278) 
natural

>  <m_Rgroups>  (278) 
[H],[OH],[H],[H],[H],[H]

>  <m_chem_types>  (278) 
1:backbone_n,2:backbone_c,3:backbone_n_mod,4:amine_primary,5:amine_primary,6:hydroxyl

>  <m_activation_policy>  (278) 
canonical-sites-v1

$$$$

     RDKit          2D

 20 21  0  0  0  0  0  0  0  0999 V2000
   -4.0435    2.4376    0.0000 R   0  0  0  0  0  1  0  0  0  0  0  0
   -3.0535    1.3107    0.0000 N   0  0  0  0  0  0  0  0  0  0  0  0
   -1.5826    1.6046    0.0000 R   0  0  0  0  0  1  0  0  0  0  0  0
   -3.5344   -0.1101    0.0000 C   0  0  0  0  0  0  0  0  0  0  0  0
   -2.5445   -1.2370    0.0000 C   0  0  0  0  0  0  0  0  0  0  0  0
   -1.0735   -0.9431    0.0000 C   0  0  0  0  0  0  0  0  0  0  0  0
   -0.5926    0.4777    0.0000 C   0  0  0  0  0  0  0  0  0  0  0  0
    0.8783    0.7716    0.0000 C   0  0  0  0  0  0  0  0  0  0  0  0
    1.8683   -0.3553    0.0000 C   0  0  0  0  0  0  0  0  0  0  0  0
    3.3393   -0.0614    0.0000 C   0  0  0  0  0  0  0  0  0  0  0  0
    4.3292   -1.1883    0.0000 C   0  0  0  0  0  0  0  0  0  0  0  0
    5.8002   -0.8944    0.0000 C   0  0  0  0  0  0  0  0  0  0  0  0
    6.2811    0.5264    0.0000 C   0  0  0  0  0  0  0  0  0  0  0  0
    5.2911    1.6533    0.0000 C   0  0  0  0  0  0  0  0  0  0  0  0
    3.8202    1.3594    0.0000 C   0  0  0  0  0  0  0  0  0  0  0  0
    1.3874   -1.7761    0.0000 C   0  0  0  0  0  0  0  0  0  0  0  0
   -0.0835   -2.0700    0.0000 C   0  0  0  0  0  0  0  0  0  0  0  0
   -5.0054   -0.4040    0.0000 C   0  0  0  0  0  0  0  0  0  0  0  0
   -5.9954    0.7229    0.0000 R   0  0  0  0  0  1  0  0  0  0  0  0
   -5.4863   -1.8248    0.0000 O   0  0  0  0  0  0  0  0  0  0  0  0
  1  2  1  0
  2  3  1  0
  2  4  1  0
  4  5  1  1
  5  6  1  0
  6  7  1  0
  7  8  2  0
  8  9  1  0
  9 10  1  0
 10 11  2  0
 11 12  1  0
 12 13  2  0
 13 14  1  0
 14 15  2  0
  9 16  2  0
 16 17  1  0
  4 18  1  0
 18 19  1  0
 18 20  2  0
 17  6  2  0
 15 10  1  0
M  ISO  3   1   1   3   3  19   2
M  END
>  <symbol>  (279) 
Bip

>  <m_abbr>  (279) 
Bip

>  <m_name>  (279) 
(2S)-2-amino-3-{[1,1'-biphenyl]-4-yl}propanoic acid

>  <m_type>  (279) 
aa

>  <m_subtype>  (279) 
natural

>  <m_Rgroups>  (279) 
[H],[OH],[H]

>  <m_chem_types>  (279) 
1:backbone_n,2:backbone_c,3:backbone_n_mod

>  <m_activation_policy>  (279) 
canonical-sites-v1

$$$$

     RDKit          2D

 20 21  0  0  0  0  0  0  0  0999 V2000
    1.2990   -3.8250    0.0000 R   0  0  0  0  0  1  0  0  0  0  0  0
    1.2990   -2.3250    0.0000 N   0  0  0  0  0  0  0  0  0  0  0  0
    2.5981   -1.5750    0.0000 R   0  0  0  0  0  1  0  0  0  0  0  0
    0.0000   -1.5750    0.0000 C   0  0  0  0  0  0  0  0  0  0  0  0
   -1.2990   -2.3250    0.0000 C   0  0  0  0  0  0  0  0  0  0  0  0
   -1.2990   -3.8250    0.0000 R   0  0  0  0  0  1  0  0  0  0  0  0
   -2.5981   -1.5750    0.0000 O   0  0  0  0  0  0  0  0  0  0  0  0
   -0.0000   -0.0750    0.0000 C   0  0  0  0  0  0  0  0  0  0  0  0
    1.2990    0.6750    0.0000 C   0  0  0  0  0  0  0  0  0  0  0  0
    2.5981   -0.0750    0.0000 C   0  0  0  0  0  0  0  0  0  0  0  0
    3.8971    0.6750    0.0000 C   0  0  0  0  0  0  0  0  0  0  0  0
    3.8971    2.1750    0.0000 C   0  0  0  0  0  0  0  0  0  0  0  0
    2.5981    2.9250    0.0000 C   0  0  0  0  0  0  0  0  0  0  0  0
    1.2990    2.1750    0.0000 C   0  0  0  0  0  0  0  0  0  0  0  0
   -1.2990    0.6750    0.0000 C   0  0  0  0  0  0  0  0  0  0  0  0
   -1.2990    2.1750    0.0000 C   0  0  0  0  0  0  0  0  0  0  0  0
   -2.5981    2.9250    0.0000 C   0  0  0  0  0  0  0  0  0  0  0  0
   -3.8971    2.1750    0.0000 C   0  0  0  0  0  0  0  0  0  0  0  0
   -3.8971    0.6750    0.0000 C   0  0  0  0  0  0  0  0  0  0  0  0
   -2.5981   -0.0750    0.0000 C   0  0  0  0  0  0  0  0  0  0  0  0
  1  2  1  0
  2  3  1  0
  2  4  1  0
  4  5  1  0
  5  6  1  0
  5  7  2  0
  4  8  1  1
  8  9  1  0
  9 10  2  0
 10 11  1  0
 11 12  2  0
 12 13  1  0
 13 14  2  0
  8 15  1  0
 15 16  2  0
 16 17  1  0
 17 18  2  0
 18 19  1  0
 19 20  2  0
 14  9  1  0
 20 15  1  0
M  ISO  3   1   1   3   3   6   2
M  END
>  <symbol>  (280) 
D_Dip

>  <m_abbr>  (280) 
D_Dip

>  <m_name>  (280) 
(2R)-2-amino-3,3-diphenylpropanoic acid

>  <m_type>  (280) 
aa

>  <m_subtype>  (280) 
natural

>  <m_Rgroups>  (280) 
[H],[OH],[H]

>  <m_chem_types>  (280) 
1:backbone_n,2:backbone_c,3:backbone_n_mod

>  <m_activation_policy>  (280) 
canonical-sites-v1

$$$$

     RDKit          2D

 21 20  0  0  0  0  0  0  0  0999 V2000
   -6.3683   -0.9534    0.0000 R   0  0  0  0  0  1  0  0  0  0  0  0
   -4.8910   -1.2130    0.0000 N   0  0  0  0  0  0  0  0  0  0  0  0
   -4.3772   -2.6223    0.0000 R   0  0  0  0  0  1  0  0  0  0  0  0
   -3.9274   -0.0634    0.0000 C   0  0  0  0  0  0  0  0  0  0  0  0
   -2.4501   -0.3231    0.0000 C   0  0  0  0  0  0  0  0  0  0  0  0
   -1.4865    0.8265    0.0000 C   0  0  0  0  0  0  0  0  0  0  0  0
   -0.0092    0.5669    0.0000 C   0  0  0  0  0  0  0  0  0  0  0  0
    0.9544    1.7165    0.0000 C   0  0  0  0  0  0  0  0  0  0  0  0
    2.4318    1.4568    0.0000 N   0  0  0  0  0  0  0  0  0  0  0  0
    3.3953    2.6064    0.0000 R   0  0  0  0  0  1  0  0  0  0  0  0
    2.9456    0.0476    0.0000 C   0  0  0  0  0  0  0  0  0  0  0  0
    1.9820   -1.1020    0.0000 N   0  0  0  0  0  0  0  0  0  0  0  0
    2.4958   -2.5113    0.0000 C   0  0  0  0  0  0  0  0  0  0  0  0
    1.5323   -3.6609    0.0000 C   0  0  0  0  0  0  0  0  0  0  0  0
    4.4229   -0.2121    0.0000 N   0  0  0  0  0  0  0  0  0  0  0  0
    4.9367   -1.6214    0.0000 R   0  0  0  0  0  1  0  0  0  0  0  0
    5.3865    0.9375    0.0000 C   0  0  0  0  0  0  0  0  0  0  0  0
    6.8638    0.6778    0.0000 C   0  0  0  0  0  0  0  0  0  0  0  0
   -4.4412    1.3458    0.0000 C   0  0  0  0  0  0  0  0  0  0  0  0
   -3.4777    2.4954    0.0000 R   0  0  0  0  0  1  0  0  0  0  0  0
   -5.9186    1.6055    0.0000 O   0  0  0  0  0  0  0  0  0  0  0  0
  1  2  1  0
  2  3  1  0
  2  4  1  0
  4  5  1  1
  5  6  1  0
  6  7  1  0
  7  8  1  0
  8  9  1  0
  9 10  1  0
  9 11  1  0
 11 12  2  3
 12 13  1  0
 13 14  1  0
 11 15  1  0
 15 16  1  0
 15 17  1  0
 17 18  1  0
  4 19  1  0
 19 20  1  0
 19 21  2  0
M  ISO  5   1   1   3   3  10   5  16   4  20   2
M  END
>  <symbol>  (281) 
D_hArg_Et2

>  <m_abbr>  (281) 
D_hArg_Et2

>  <m_name>  (281) 
(2R)-2-amino-6-{[bis(ethylamino)methylidene]amino}hexanoic acid

>  <m_type>  (281) 
aa

>  <m_subtype>  (281) 
natural

>  <m_Rgroups>  (281) 
[H],[OH],[H],[H],[H]

>  <m_chem_types>  (281) 
1:backbone_n,2:backbone_c,3:backbone_n_mod,4:guanidinium,5:guanidinium

>  <m_activation_policy>  (281) 
canonical-sites-v1

$$$$

     RDKit          2D

 12 11  0  0  0  0  0  0  0  0999 V2000
   -3.5281   -0.5638    0.0000 R   0  0  0  0  0  1  0  0  0  0  0  0
   -2.1179   -1.0748    0.0000 N   0  0  0  0  0  0  0  0  0  0  0  0
   -1.8553   -2.5517    0.0000 R   0  0  0  0  0  1  0  0  0  0  0  0
   -0.9702   -0.1090    0.0000 C   0  0  0  0  0  0  0  0  0  0  0  0
    0.4401   -0.6200    0.0000 C   0  0  0  0  0  0  0  0  0  0  0  0
    1.5878    0.3458    0.0000 C   0  0  0  0  0  0  0  0  0  0  0  0
    2.9981   -0.1653    0.0000 S   0  0  0  0  0  0  0  0  0  0  0  0
    4.1458    0.8005    0.0000 C   0  0  0  0  0  0  0  0  0  0  0  0
    3.2606   -1.6421    0.0000 O   0  0  0  0  0  0  0  0  0  0  0  0
   -1.2327    1.3678    0.0000 C   0  0  0  0  0  0  0  0  0  0  0  0
   -0.0850    2.3336    0.0000 R   0  0  0  0  0  1  0  0  0  0  0  0
   -2.6430    1.8789    0.0000 O   0  0  0  0  0  0  0  0  0  0  0  0
  1  2  1  0
  2  3  1  0
  2  4  1  0
  4  5  1  1
  5  6  1  0
  6  7  1  0
  7  8  1  6
  7  9  1  0
  4 10  1  0
 10 11  1  0
 10 12  2  0
M  CHG  2   7   1   9  -1
M  ISO  3   1   1   3   3  11   2
M  END
>  <symbol>  (282) 
D_Met_S_O

>  <m_abbr>  (282) 
D_Met_S_O

>  <m_name>  (282) 
(2R)-2-amino-4-[(S)-methanesulfinyl]butanoic acid

>  <m_type>  (282) 
aa

>  <m_subtype>  (282) 
natural

>  <m_Rgroups>  (282) 
[H],[OH],[H]

>  <m_chem_types>  (282) 
1:backbone_n,2:backbone_c,3:backbone_n_mod

>  <m_activation_policy>  (282) 
canonical-sites-v1

$$$$

     RDKit          2D

 20 21  0  0  0  0  0  0  0  0999 V2000
   -4.3280    2.4055    0.0000 R   0  0  0  0  0  1  0  0  0  0  0  0
   -3.2840    1.3284    0.0000 N   0  0  0  0  0  0  0  0  0  0  0  0
   -1.8292    1.6939    0.0000 R   0  0  0  0  0  1  0  0  0  0  0  0
   -3.6949   -0.1142    0.0000 C   0  0  0  0  0  0  0  0  0  0  0  0
   -2.6509   -1.1913    0.0000 C   0  0  0  0  0  0  0  0  0  0  0  0
   -1.1961   -0.8258    0.0000 C   0  0  0  0  0  0  0  0  0  0  0  0
   -0.0453   -1.7879    0.0000 C   0  0  0  0  0  0  0  0  0  0  0  0
    1.2253   -0.9907    0.0000 N   0  0  0  0  0  0  0  0  0  0  0  0
    2.6171   -1.5501    0.0000 C   0  0  0  0  0  0  0  0  0  0  0  0
    3.7974   -0.6245    0.0000 C   0  0  0  0  0  0  0  0  0  0  0  0
    5.1892   -1.1838    0.0000 C   0  0  0  0  0  0  0  0  0  0  0  0
    6.3696   -0.2582    0.0000 C   0  0  0  0  0  0  0  0  0  0  0  0
    6.1581    1.2268    0.0000 C   0  0  0  0  0  0  0  0  0  0  0  0
    4.7663    1.7862    0.0000 C   0  0  0  0  0  0  0  0  0  0  0  0
    3.5860    0.8606    0.0000 C   0  0  0  0  0  0  0  0  0  0  0  0
    0.8598    0.4641    0.0000 C   0  0  0  0  0  0  0  0  0  0  0  0
   -0.6367    0.5660    0.0000 N   0  0  0  0  0  0  0  0  0  0  0  0
   -5.1496   -0.4798    0.0000 C   0  0  0  0  0  0  0  0  0  0  0  0
   -6.1936    0.5974    0.0000 R   0  0  0  0  0  1  0  0  0  0  0  0
   -5.5605   -1.9224    0.0000 O   0  0  0  0  0  0  0  0  0  0  0  0
  1  2  1  0
  2  3  1  0
  2  4  1  0
  4  5  1  6
  5  6  1  0
  6  7  2  0
  7  8  1  0
  8  9  1  0
  9 10  1  0
 10 11  2  0
 11 12  1  0
 12 13  2  0
 13 14  1  0
 14 15  2  0
  8 16  1  0
 16 17  2  0
  4 18  1  0
 18 19  1  0
 18 20  2  0
 17  6  1  0
 15 10  1  0
M  ISO  3   1   1   3   3  19   2
M  END
>  <symbol>  (283) 
D_His_1Bn

>  <m_abbr>  (283) 
D_His_1Bn

>  <m_name>  (283) 
(2R)-2-amino-3-(1-benzyl-1H-imidazol-4-yl)propanoic acid

>  <m_type>  (283) 
aa

>  <m_subtype>  (283) 
natural

>  <m_Rgroups>  (283) 
[H],[OH],[H]

>  <m_chem_types>  (283) 
1:backbone_n,2:backbone_c,3:backbone_n_mod

>  <m_activation_policy>  (283) 
canonical-sites-v1

$$$$

     RDKit          2D

 15 15  0  0  0  0  0  0  0  0999 V2000
   -3.7935   -1.5130    0.0000 R   0  0  0  0  0  1  0  0  0  0  0  0
   -2.2981   -1.3960    0.0000 N   0  0  0  0  0  0  0  0  0  0  0  0
   -1.4491   -2.6325    0.0000 R   0  0  0  0  0  1  0  0  0  0  0  0
   -1.6517   -0.0424    0.0000 C   0  0  0  0  0  0  0  0  0  0  0  0
   -2.5008    1.1942    0.0000 C   0  0  0  0  0  0  0  0  0  0  0  0
   -3.9962    1.0772    0.0000 R   0  0  0  0  0  1  0  0  0  0  0  0
   -1.8544    2.5478    0.0000 O   0  0  0  0  0  0  0  0  0  0  0  0
   -0.1563    0.0746    0.0000 C   0  0  0  0  0  0  0  0  0  0  0  0
    0.4901    1.4282    0.0000 C   0  0  0  0  0  0  0  0  0  0  0  0
    1.9855    1.5452    0.0000 C   0  0  0  0  0  0  0  0  0  0  0  0
    2.8346    0.3087    0.0000 C   0  0  0  0  0  0  0  0  0  0  0  0
    4.3300    0.4257    0.0000 O   0  0  0  0  0  0  0  0  0  0  0  0
    5.1790   -0.8109    0.0000 R   0  0  0  0  0  1  0  0  0  0  0  0
    2.1882   -1.0449    0.0000 C   0  0  0  0  0  0  0  0  0  0  0  0
    0.6928   -1.1619    0.0000 C   0  0  0  0  0  0  0  0  0  0  0  0
  1  2  1  0
  2  3  1  0
  4  2  1  1
  4  5  1  0
  5  6  1  0
  5  7  2  0
  4  8  1  0
  8  9  1  0
  9 10  2  0
 10 11  1  0
 11 12  1  0
 12 13  1  0
 11 14  2  0
 14 15  1  0
 15  8  2  0
M  ISO  4   1   1   3   3   6   2  13   4
M  END
>  <symbol>  (284) 
D_nTyr

>  <m_abbr>  (284) 
D_nTyr

>  <m_name>  (284) 
(2R)-2-amino-2-(4-hydroxyphenyl)acetic acid

>  <m_type>  (284) 
aa

>  <m_subtype>  (284) 
natural

>  <m_Rgroups>  (284) 
[H],[OH],[H],[H]

>  <m_chem_types>  (284) 
1:backbone_n,2:backbone_c,3:backbone_n_mod,4:aryl_phenol_o

>  <m_activation_policy>  (284) 
canonical-sites-v1

$$$$

     RDKit          2D

 21 21  0  0  0  0  0  0  0  0999 V2000
   -3.9108    2.5866    0.0000 R   0  0  0  0  0  1  0  0  0  0  0  0
   -3.0538    1.3555    0.0000 N   0  0  0  0  0  0  0  0  0  0  0  0
   -1.5592    1.4820    0.0000 R   0  0  0  0  0  1  0  0  0  0  0  0
   -3.6916   -0.0022    0.0000 C   0  0  0  0  0  0  0  0  0  0  0  0
   -2.8346   -1.2333    0.0000 C   0  0  0  0  0  0  0  0  0  0  0  0
   -1.3400   -1.1068    0.0000 C   0  0  0  0  0  0  0  0  0  0  0  0
   -0.7023    0.2509    0.0000 C   0  0  0  0  0  0  0  0  0  0  0  0
    0.7924    0.3775    0.0000 C   0  0  0  0  0  0  0  0  0  0  0  0
    1.6493   -0.8536    0.0000 C   0  0  0  0  0  0  0  0  0  0  0  0
    3.1440   -0.7270    0.0000 N   0  0  0  0  0  0  0  0  0  0  0  0
    4.0009   -1.9581    0.0000 R   0  0  0  0  0  1  0  0  0  0  0  0
    3.7817    0.6307    0.0000 C   0  0  0  0  0  0  0  0  0  0  0  0
    2.9247    1.8618    0.0000 O   0  0  0  0  0  0  0  0  0  0  0  0
    5.2763    0.7573    0.0000 N   0  0  0  0  0  0  0  0  0  0  0  0
    5.9140    2.1149    0.0000 R   0  0  0  0  0  1  0  0  0  0  0  0
    6.1333   -0.4739    0.0000 R   0  0  0  0  0  1  0  0  0  0  0  0
    1.0116   -2.2113    0.0000 C   0  0  0  0  0  0  0  0  0  0  0  0
   -0.4830   -2.3379    0.0000 C   0  0  0  0  0  0  0  0  0  0  0  0
   -5.1862   -0.1288    0.0000 C   0  0  0  0  0  0  0  0  0  0  0  0
   -6.0431    1.1023    0.0000 R   0  0  0  0  0  1  0  0  0  0  0  0
   -5.8239   -1.4865    0.0000 O   0  0  0  0  0  0  0  0  0  0  0  0
  1  2  1  0
  2  3  1  0
  2  4  1  0
  4  5  1  6
  5  6  1  0
  6  7  1  0
  7  8  2  0
  8  9  1  0
  9 10  1  0
 10 11  1  0
 10 12  1  0
 12 13  2  0
 12 14  1  0
 14 15  1  0
 14 16  1  0
  9 17  2  0
 17 18  1  0
  4 19  1  0
 19 20  1  0
 19 21  2  0
 18  6  2  0
M  ISO  6   1   1   3   3  11   6  15   4  16   5  20   2
M  END
>  <symbol>  (285) 
D_Phe_4ureido

>  <m_abbr>  (285) 
D_Phe_4ureido

>  <m_name>  (285) 
(2R)-2-amino-3-[4-(carbamoylamino)phenyl]propanoic acid

>  <m_type>  (285) 
aa

>  <m_subtype>  (285) 
natural

>  <m_Rgroups>  (285) 
[H],[OH],[H],[H],[H],[H]

>  <m_chem_types>  (285) 
1:backbone_n,2:backbone_c,3:backbone_n_mod,4:urea_nh,5:urea_nh,6:urea_nh

>  <m_activation_policy>  (285) 
canonical-sites-v1

$$$$

     RDKit          2D

  8  7  0  0  0  0  0  0  0  0999 V2000
   -1.2990    1.6875    0.0000 R   0  0  0  0  0  1  0  0  0  0  0  0
   -1.2990    0.1875    0.0000 N   0  0  0  0  0  0  0  0  0  0  0  0
   -2.5981   -0.5625    0.0000 C   0  0  0  0  0  0  0  0  0  0  0  0
    0.0000   -0.5625    0.0000 C   0  0  0  0  0  0  0  0  0  0  0  0
    0.0000   -2.0625    0.0000 C   0  0  0  0  0  0  0  0  0  0  0  0
    1.2990    0.1875    0.0000 C   0  0  0  0  0  0  0  0  0  0  0  0
    2.5981   -0.5625    0.0000 R   0  0  0  0  0  1  0  0  0  0  0  0
    1.2990    1.6875    0.0000 O   0  0  0  0  0  0  0  0  0  0  0  0
  1  2  1  0
  2  3  1  0
  2  4  1  0
  4  5  1  6
  4  6  1  0
  6  7  1  0
  6  8  2  0
M  ISO  2   1   1   7   2
M  END
>  <symbol>  (286) 
meA

>  <m_abbr>  (286) 
meA

>  <m_name>  (286) 
N-Methyl-Alanine

>  <m_type>  (286) 
aa

>  <m_subtype>  (286) 
natural

>  <m_Rgroups>  (286) 
[H],[OH]

>  <m_chem_types>  (286) 
1:backbone_n,2:backbone_c

>  <m_activation_policy>  (286) 
canonical-sites-v1

$$$$

     RDKit          2D

  7  6  0  0  0  0  0  0  0  0999 V2000
   -2.5981    0.8571    0.0000 R   0  0  0  0  0  1  0  0  0  0  0  0
   -1.2990    0.1071    0.0000 N   0  0  0  0  0  0  0  0  0  0  0  0
   -1.2990   -1.3929    0.0000 C   0  0  0  0  0  0  0  0  0  0  0  0
    0.0000    0.8571    0.0000 C   0  0  0  0  0  0  0  0  0  0  0  0
    1.2990    0.1071    0.0000 C   0  0  0  0  0  0  0  0  0  0  0  0
    2.5981    0.8571    0.0000 R   0  0  0  0  0  1  0  0  0  0  0  0
    1.2990   -1.3929    0.0000 O   0  0  0  0  0  0  0  0  0  0  0  0
  1  2  1  0
  2  3  1  0
  2  4  1  0
  4  5  1  0
  5  6  1  0
  5  7  2  0
M  ISO  2   1   1   6   2
M  END
>  <symbol>  (287) 
meG

>  <m_abbr>  (287) 
meG

>  <m_name>  (287) 
N-Methyl-Glycine

>  <m_type>  (287) 
aa

>  <m_subtype>  (287) 
natural

>  <m_Rgroups>  (287) 
[H],[OH]

>  <m_chem_types>  (287) 
1:backbone_n,2:backbone_c

>  <m_activation_policy>  (287) 
canonical-sites-v1

$$$$

     RDKit          2D

 11 10  0  0  0  0  0  0  0  0999 V2000
   -3.0813    0.0866    0.0000 R   0  0  0  0  0  1  0  0  0  0  0  0
   -1.8784   -0.8095    0.0000 N   0  0  0  0  0  0  0  0  0  0  0  0
   -2.0531   -2.2993    0.0000 C   0  0  0  0  0  0  0  0  0  0  0  0
   -0.5009   -0.2159    0.0000 C   0  0  0  0  0  0  0  0  0  0  0  0
    0.7020   -1.1120    0.0000 C   0  0  0  0  0  0  0  0  0  0  0  0
    2.0795   -0.5184    0.0000 C   0  0  0  0  0  0  0  0  0  0  0  0
    3.2824   -1.4145    0.0000 C   0  0  0  0  0  0  0  0  0  0  0  0
    2.2541    0.9714    0.0000 C   0  0  0  0  0  0  0  0  0  0  0  0
   -0.3263    1.2739    0.0000 C   0  0  0  0  0  0  0  0  0  0  0  0
    1.0513    1.8676    0.0000 R   0  0  0  0  0  1  0  0  0  0  0  0
   -1.5291    2.1701    0.0000 O   0  0  0  0  0  0  0  0  0  0  0  0
  1  2  1  0
  2  3  1  0
  2  4  1  0
  4  5  1  6
  5  6  1  0
  6  7  1  0
  6  8  1  0
  4  9  1  0
  9 10  1  0
  9 11  2  0
M  ISO  2   1   1  10   2
M  END
>  <symbol>  (288) 
meL

>  <m_abbr>  (288) 
meL

>  <m_name>  (288) 
N-Methyl-Leucine

>  <m_type>  (288) 
aa

>  <m_subtype>  (288) 
natural

>  <m_Rgroups>  (288) 
[H],[OH]

>  <m_chem_types>  (288) 
1:backbone_n,2:backbone_c

>  <m_activation_policy>  (288) 
canonical-sites-v1

$$$$

     RDKit          2D

 11 10  0  0  0  0  0  0  0  0999 V2000
   -2.0616   -1.9640    0.0000 R   0  0  0  0  0  1  0  0  0  0  0  0
   -0.6443   -1.4730    0.0000 N   0  0  0  0  0  0  0  0  0  0  0  0
    0.4896   -2.4550    0.0000 C   0  0  0  0  0  0  0  0  0  0  0  0
   -0.3608    0.0000    0.0000 C   0  0  0  0  0  0  0  0  0  0  0  0
   -1.4947    0.9820    0.0000 C   0  0  0  0  0  0  0  0  0  0  0  0
   -1.2112    2.4550    0.0000 R   0  0  0  0  0  1  0  0  0  0  0  0
   -2.9120    0.4910    0.0000 O   0  0  0  0  0  0  0  0  0  0  0  0
    1.0566    0.4910    0.0000 C   0  0  0  0  0  0  0  0  0  0  0  0
    1.3401    1.9640    0.0000 C   0  0  0  0  0  0  0  0  0  0  0  0
    2.1905   -0.4910    0.0000 C   0  0  0  0  0  0  0  0  0  0  0  0
    3.6078   -0.0000    0.0000 C   0  0  0  0  0  0  0  0  0  0  0  0
  1  2  1  0
  2  3  1  0
  4  2  1  6
  4  5  1  0
  5  6  1  0
  5  7  2  0
  4  8  1  0
  8  9  1  1
  8 10  1  0
 10 11  1  0
M  ISO  2   1   1   6   2
M  END
>  <symbol>  (289) 
meI

>  <m_abbr>  (289) 
meI

>  <m_name>  (289) 
N-Methyl-Isoleucine

>  <m_type>  (289) 
aa

>  <m_subtype>  (289) 
natural

>  <m_Rgroups>  (289) 
[H],[OH]

>  <m_chem_types>  (289) 
1:backbone_n,2:backbone_c

>  <m_activation_policy>  (289) 
canonical-sites-v1

$$$$

     RDKit          2D

 10  9  0  0  0  0  0  0  0  0999 V2000
   -1.2990   -2.2500    0.0000 R   0  0  0  0  0  1  0  0  0  0  0  0
    0.0000   -1.5000    0.0000 N   0  0  0  0  0  0  0  0  0  0  0  0
    1.2990   -2.2500    0.0000 C   0  0  0  0  0  0  0  0  0  0  0  0
    0.0000    0.0000    0.0000 C   0  0  0  0  0  0  0  0  0  0  0  0
   -1.2990    0.7500    0.0000 C   0  0  0  0  0  0  0  0  0  0  0  0
   -1.2990    2.2500    0.0000 R   0  0  0  0  0  1  0  0  0  0  0  0
   -2.5981   -0.0000    0.0000 O   0  0  0  0  0  0  0  0  0  0  0  0
    1.2990    0.7500    0.0000 C   0  0  0  0  0  0  0  0  0  0  0  0
    1.2990    2.2500    0.0000 C   0  0  0  0  0  0  0  0  0  0  0  0
    2.5981    0.0000    0.0000 C   0  0  0  0  0  0  0  0  0  0  0  0
  1  2  1  0
  2  3  1  0
  2  4  1  0
  4  5  1  0
  5  6  1  0
  5  7  2  0
  4  8  1  6
  8  9  1  0
  8 10  1  0
M  ISO  2   1   1   6   2
M  END
>  <symbol>  (290) 
meV

>  <m_abbr>  (290) 
meV

>  <m_name>  (290) 
N-Methyl-Valine

>  <m_type>  (290) 
aa

>  <m_subtype>  (290) 
natural

>  <m_Rgroups>  (290) 
[H],[OH]

>  <m_chem_types>  (290) 
1:backbone_n,2:backbone_c

>  <m_activation_policy>  (290) 
canonical-sites-v1

$$$$

     RDKit          2D

 14 14  0  0  0  0  0  0  0  0999 V2000
   -2.3413    2.2101    0.0000 R   0  0  0  0  0  1  0  0  0  0  0  0
   -1.1930    1.2450    0.0000 N   0  0  0  0  0  0  0  0  0  0  0  0
    0.2170    1.7569    0.0000 C   0  0  0  0  0  0  0  0  0  0  0  0
   -1.4546   -0.2320    0.0000 C   0  0  0  0  0  0  0  0  0  0  0  0
   -0.3063   -1.1971    0.0000 C   0  0  0  0  0  0  0  0  0  0  0  0
    1.1037   -0.6851    0.0000 C   0  0  0  0  0  0  0  0  0  0  0  0
    1.3653    0.7919    0.0000 C   0  0  0  0  0  0  0  0  0  0  0  0
    2.7752    1.3038    0.0000 C   0  0  0  0  0  0  0  0  0  0  0  0
    3.9235    0.3387    0.0000 C   0  0  0  0  0  0  0  0  0  0  0  0
    3.6619   -1.1383    0.0000 C   0  0  0  0  0  0  0  0  0  0  0  0
    2.2520   -1.6502    0.0000 C   0  0  0  0  0  0  0  0  0  0  0  0
   -2.8645   -0.7439    0.0000 C   0  0  0  0  0  0  0  0  0  0  0  0
   -4.0128    0.2211    0.0000 R   0  0  0  0  0  1  0  0  0  0  0  0
   -3.1261   -2.2209    0.0000 O   0  0  0  0  0  0  0  0  0  0  0  0
  1  2  1  0
  2  3  1  0
  2  4  1  0
  4  5  1  1
  5  6  1  0
  6  7  2  0
  7  8  1  0
  8  9  2  0
  9 10  1  0
 10 11  2  0
  4 12  1  0
 12 13  1  0
 12 14  2  0
 11  6  1  0
M  ISO  2   1   1  13   2
M  END
>  <symbol>  (291) 
meF

>  <m_abbr>  (291) 
meF

>  <m_name>  (291) 
N-Methyl-Phenylalanine

>  <m_type>  (291) 
aa

>  <m_subtype>  (291) 
natural

>  <m_Rgroups>  (291) 
[H],[OH]

>  <m_chem_types>  (291) 
1:backbone_n,2:backbone_c

>  <m_activation_policy>  (291) 
canonical-sites-v1

$$$$

     RDKit          2D

 18 19  0  0  0  0  0  0  0  0999 V2000
   -3.8349   -1.8005    0.0000 R   0  0  0  0  0  1  0  0  0  0  0  0
   -2.4851   -1.1463    0.0000 N   0  0  0  0  0  0  0  0  0  0  0  0
   -1.2436   -1.9882    0.0000 C   0  0  0  0  0  0  0  0  0  0  0  0
   -2.3767    0.3497    0.0000 C   0  0  0  0  0  0  0  0  0  0  0  0
   -1.0269    1.0039    0.0000 C   0  0  0  0  0  0  0  0  0  0  0  0
    0.2146    0.1620    0.0000 C   0  0  0  0  0  0  0  0  0  0  0  0
    0.2632   -1.3372    0.0000 C   0  0  0  0  0  0  0  0  0  0  0  0
    1.7040   -1.7543    0.0000 N   0  0  0  0  0  0  0  0  0  0  0  0
    2.2135   -3.1651    0.0000 R   0  0  0  0  0  1  0  0  0  0  0  0
    2.5459   -0.5128    0.0000 C   0  0  0  0  0  0  0  0  0  0  0  0
    4.0318   -0.3078    0.0000 C   0  0  0  0  0  0  0  0  0  0  0  0
    4.5972    1.0816    0.0000 C   0  0  0  0  0  0  0  0  0  0  0  0
    3.6767    2.2659    0.0000 C   0  0  0  0  0  0  0  0  0  0  0  0
    2.1908    2.0609    0.0000 C   0  0  0  0  0  0  0  0  0  0  0  0
    1.6254    0.6715    0.0000 C   0  0  0  0  0  0  0  0  0  0  0  0
   -3.6182    1.1916    0.0000 C   0  0  0  0  0  0  0  0  0  0  0  0
   -4.9680    0.5375    0.0000 R   0  0  0  0  0  1  0  0  0  0  0  0
   -3.5098    2.6877    0.0000 O   0  0  0  0  0  0  0  0  0  0  0  0
  1  2  1  0
  2  3  1  0
  2  4  1  0
  4  5  1  6
  5  6  1  0
  6  7  2  0
  7  8  1  0
  8  9  1  0
  8 10  1  0
 10 11  2  0
 11 12  1  0
 12 13  2  0
 13 14  1  0
 14 15  2  0
  4 16  1  0
 16 17  1  0
 16 18  2  0
 15  6  1  0
 15 10  1  0
M  ISO  3   1   1   9   4  17   2
M  END
>  <symbol>  (292) 
meW

>  <m_abbr>  (292) 
meW

>  <m_name>  (292) 
N-Methyl-Tryptophan

>  <m_type>  (292) 
aa

>  <m_subtype>  (292) 
natural

>  <m_Rgroups>  (292) 
[H],[OH],None,[H]

>  <m_chem_types>  (292) 
1:backbone_n,2:backbone_c,4:aromatic_nh

>  <m_activation_policy>  (292) 
canonical-sites-v1

$$$$

     RDKit          2D

 10  9  0  0  0  0  0  0  0  0999 V2000
   -2.8539   -0.2134    0.0000 R   0  0  0  0  0  1  0  0  0  0  0  0
   -1.5385   -0.9344    0.0000 N   0  0  0  0  0  0  0  0  0  0  0  0
   -1.5052   -2.4340    0.0000 C   0  0  0  0  0  0  0  0  0  0  0  0
   -0.2564   -0.1557    0.0000 C   0  0  0  0  0  0  0  0  0  0  0  0
    1.0589   -0.8767    0.0000 C   0  0  0  0  0  0  0  0  0  0  0  0
    2.3410   -0.0981    0.0000 O   0  0  0  0  0  0  0  0  0  0  0  0
    3.6564   -0.8191    0.0000 R   0  0  0  0  0  1  0  0  0  0  0  0
   -0.2897    1.3439    0.0000 C   0  0  0  0  0  0  0  0  0  0  0  0
    0.9924    2.1225    0.0000 R   0  0  0  0  0  1  0  0  0  0  0  0
   -1.6051    2.0649    0.0000 O   0  0  0  0  0  0  0  0  0  0  0  0
  1  2  1  0
  2  3  1  0
  2  4  1  0
  4  5  1  6
  5  6  1  0
  6  7  1  0
  4  8  1  0
  8  9  1  0
  8 10  2  0
M  ISO  3   1   1   7   4   9   2
M  END
>  <symbol>  (293) 
meS

>  <m_abbr>  (293) 
meS

>  <m_name>  (293) 
N-Methyl-Serine

>  <m_type>  (293) 
aa

>  <m_subtype>  (293) 
natural

>  <m_Rgroups>  (293) 
[H],[OH],None,[H]

>  <m_chem_types>  (293) 
1:backbone_n,2:backbone_c,4:hydroxyl

>  <m_activation_policy>  (293) 
canonical-sites-v1

$$$$

     RDKit          2D

 11 10  0  0  0  0  0  0  0  0999 V2000
   -2.0616   -1.9640    0.0000 R   0  0  0  0  0  1  0  0  0  0  0  0
   -0.6443   -1.4730    0.0000 N   0  0  0  0  0  0  0  0  0  0  0  0
    0.4896   -2.4550    0.0000 C   0  0  0  0  0  0  0  0  0  0  0  0
   -0.3608    0.0000    0.0000 C   0  0  0  0  0  0  0  0  0  0  0  0
   -1.4947    0.9820    0.0000 C   0  0  0  0  0  0  0  0  0  0  0  0
   -1.2112    2.4550    0.0000 R   0  0  0  0  0  1  0  0  0  0  0  0
   -2.9120    0.4910    0.0000 O   0  0  0  0  0  0  0  0  0  0  0  0
    1.0566    0.4910    0.0000 C   0  0  0  0  0  0  0  0  0  0  0  0
    1.3401    1.9640    0.0000 C   0  0  0  0  0  0  0  0  0  0  0  0
    2.1905   -0.4910    0.0000 O   0  0  0  0  0  0  0  0  0  0  0  0
    3.6078   -0.0000    0.0000 R   0  0  0  0  0  1  0  0  0  0  0  0
  1  2  1  0
  2  3  1  0
  4  2  1  6
  4  5  1  0
  5  6  1  0
  5  7  2  0
  4  8  1  0
  8  9  1  1
  8 10  1  0
 10 11  1  0
M  ISO  3   1   1   6   2  11   4
M  END
>  <symbol>  (294) 
meT

>  <m_abbr>  (294) 
meT

>  <m_name>  (294) 
N-Methyl-Threonine

>  <m_type>  (294) 
aa

>  <m_subtype>  (294) 
natural

>  <m_Rgroups>  (294) 
[H],[OH],None,[H]

>  <m_chem_types>  (294) 
1:backbone_n,2:backbone_c,4:hydroxyl

>  <m_activation_policy>  (294) 
canonical-sites-v1

$$$$

     RDKit          2D

 10  9  0  0  0  0  0  0  0  0999 V2000
   -1.5052    2.4340    0.0000 R   0  0  0  0  0  1  0  0  0  0  0  0
   -1.5385    0.9344    0.0000 N   0  0  0  0  0  0  0  0  0  0  0  0
   -2.8539    0.2134    0.0000 C   0  0  0  0  0  0  0  0  0  0  0  0
   -0.2564    0.1557    0.0000 C   0  0  0  0  0  0  0  0  0  0  0  0
    1.0589    0.8767    0.0000 C   0  0  0  0  0  0  0  0  0  0  0  0
    2.3410    0.0981    0.0000 S   0  0  0  0  0  0  0  0  0  0  0  0
    3.6564    0.8191    0.0000 R   0  0  0  0  0  1  0  0  0  0  0  0
   -0.2897   -1.3439    0.0000 C   0  0  0  0  0  0  0  0  0  0  0  0
    0.9924   -2.1225    0.0000 R   0  0  0  0  0  1  0  0  0  0  0  0
   -1.6051   -2.0649    0.0000 O   0  0  0  0  0  0  0  0  0  0  0  0
  1  2  1  0
  2  3  1  0
  2  4  1  0
  4  5  1  1
  5  6  1  0
  6  7  1  0
  4  8  1  0
  8  9  1  0
  8 10  2  0
M  ISO  3   1   1   7   4   9   2
M  END
>  <symbol>  (295) 
meC

>  <m_abbr>  (295) 
meC

>  <m_name>  (295) 
N-Methyl-Cysteine

>  <m_type>  (295) 
aa

>  <m_subtype>  (295) 
natural

>  <m_Rgroups>  (295) 
[H],[OH],None,[H]

>  <m_chem_types>  (295) 
1:backbone_n,2:backbone_c,4:thiol

>  <m_activation_policy>  (295) 
canonical-sites-v1

$$$$

     RDKit          2D

 16 16  0  0  0  0  0  0  0  0999 V2000
   -3.0227    2.2431    0.0000 R   0  0  0  0  0  1  0  0  0  0  0  0
   -1.8997    1.2486    0.0000 N   0  0  0  0  0  0  0  0  0  0  0  0
   -0.4770    1.7239    0.0000 C   0  0  0  0  0  0  0  0  0  0  0  0
   -2.1995   -0.2211    0.0000 C   0  0  0  0  0  0  0  0  0  0  0  0
   -1.0766   -1.2156    0.0000 C   0  0  0  0  0  0  0  0  0  0  0  0
    0.3462   -0.7404    0.0000 C   0  0  0  0  0  0  0  0  0  0  0  0
    0.6459    0.7294    0.0000 C   0  0  0  0  0  0  0  0  0  0  0  0
    2.0687    1.2046    0.0000 C   0  0  0  0  0  0  0  0  0  0  0  0
    3.1916    0.2101    0.0000 C   0  0  0  0  0  0  0  0  0  0  0  0
    4.6143    0.6854    0.0000 O   0  0  0  0  0  0  0  0  0  0  0  0
    5.7373   -0.3091    0.0000 R   0  0  0  0  0  1  0  0  0  0  0  0
    2.8918   -1.2596    0.0000 C   0  0  0  0  0  0  0  0  0  0  0  0
    1.4691   -1.7348    0.0000 C   0  0  0  0  0  0  0  0  0  0  0  0
   -3.6222   -0.6964    0.0000 C   0  0  0  0  0  0  0  0  0  0  0  0
   -4.7452    0.2981    0.0000 R   0  0  0  0  0  1  0  0  0  0  0  0
   -3.9220   -2.1661    0.0000 O   0  0  0  0  0  0  0  0  0  0  0  0
  1  2  1  0
  2  3  1  0
  2  4  1  0
  4  5  1  1
  5  6  1  0
  6  7  1  0
  7  8  2  0
  8  9  1  0
  9 10  1  0
 10 11  1  0
  9 12  2  0
 12 13  1  0
  4 14  1  0
 14 15  1  0
 14 16  2  0
 13  6  2  0
M  ISO  3   1   1  11   4  15   2
M  END
>  <symbol>  (296) 
meY

>  <m_abbr>  (296) 
meY

>  <m_name>  (296) 
N-Methyl-Tyrosine

>  <m_type>  (296) 
aa

>  <m_subtype>  (296) 
natural

>  <m_Rgroups>  (296) 
[H],[OH],None,[H]

>  <m_chem_types>  (296) 
1:backbone_n,2:backbone_c,4:aryl_phenol_o

>  <m_activation_policy>  (296) 
canonical-sites-v1

$$$$

     RDKit          2D

 14 14  0  0  0  0  0  0  0  0999 V2000
   -2.5982    2.0750    0.0000 R   0  0  0  0  0  1  0  0  0  0  0  0
   -1.3182    1.2930    0.0000 N   0  0  0  0  0  0  0  0  0  0  0  0
   -0.0009    2.0105    0.0000 C   0  0  0  0  0  0  0  0  0  0  0  0
   -1.3555   -0.2066    0.0000 C   0  0  0  0  0  0  0  0  0  0  0  0
   -0.0755   -0.9886    0.0000 C   0  0  0  0  0  0  0  0  0  0  0  0
    1.2418   -0.2711    0.0000 C   0  0  0  0  0  0  0  0  0  0  0  0
    1.4356    1.2163    0.0000 C   0  0  0  0  0  0  0  0  0  0  0  0
    2.9102    1.4916    0.0000 N   0  0  0  0  0  0  0  0  0  0  0  0
    3.6276    0.1743    0.0000 C   0  0  0  0  0  0  0  0  0  0  0  0
    2.5966   -0.9151    0.0000 N   0  0  0  0  0  0  0  0  0  0  0  0
    2.8719   -2.3896    0.0000 R   0  0  0  0  0  1  0  0  0  0  0  0
   -2.6727   -0.9241    0.0000 C   0  0  0  0  0  0  0  0  0  0  0  0
   -3.9527   -0.1420    0.0000 R   0  0  0  0  0  1  0  0  0  0  0  0
   -2.7100   -2.4236    0.0000 O   0  0  0  0  0  0  0  0  0  0  0  0
  1  2  1  0
  2  3  1  0
  2  4  1  0
  4  5  1  1
  5  6  1  0
  6  7  2  0
  7  8  1  0
  8  9  2  0
  9 10  1  0
 10 11  1  0
  4 12  1  0
 12 13  1  0
 12 14  2  0
 10  6  1  0
M  ISO  3   1   1  11   4  13   2
M  END
>  <symbol>  (297) 
meH

>  <m_abbr>  (297) 
meH

>  <m_name>  (297) 
N-Methyl-Histidine

>  <m_type>  (297) 
aa

>  <m_subtype>  (297) 
natural

>  <m_Rgroups>  (297) 
[H],[OH],None,[H]

>  <m_chem_types>  (297) 
1:backbone_n,2:backbone_c,4:aromatic_nh

>  <m_activation_policy>  (297) 
canonical-sites-v1

$$$$

     RDKit          2D

 11 10  0  0  0  0  0  0  0  0999 V2000
   -3.0813    0.0866    0.0000 R   0  0  0  0  0  1  0  0  0  0  0  0
   -1.8784   -0.8095    0.0000 N   0  0  0  0  0  0  0  0  0  0  0  0
   -2.0531   -2.2993    0.0000 C   0  0  0  0  0  0  0  0  0  0  0  0
   -0.5009   -0.2159    0.0000 C   0  0  0  0  0  0  0  0  0  0  0  0
    0.7020   -1.1120    0.0000 C   0  0  0  0  0  0  0  0  0  0  0  0
    2.0795   -0.5184    0.0000 C   0  0  0  0  0  0  0  0  0  0  0  0
    3.2824   -1.4145    0.0000 R   0  0  0  0  0  1  0  0  0  0  0  0
    2.2541    0.9714    0.0000 O   0  0  0  0  0  0  0  0  0  0  0  0
   -0.3263    1.2739    0.0000 C   0  0  0  0  0  0  0  0  0  0  0  0
    1.0513    1.8676    0.0000 R   0  0  0  0  0  1  0  0  0  0  0  0
   -1.5291    2.1701    0.0000 O   0  0  0  0  0  0  0  0  0  0  0  0
  1  2  1  0
  2  3  1  0
  2  4  1  0
  4  5  1  6
  5  6  1  0
  6  7  1  0
  6  8  2  0
  4  9  1  0
  9 10  1  0
  9 11  2  0
M  ISO  3   1   1   7   4  10   2
M  END
>  <symbol>  (298) 
meD

>  <m_abbr>  (298) 
meD

>  <m_name>  (298) 
N-Methyl-Aspartic acid

>  <m_type>  (298) 
aa

>  <m_subtype>  (298) 
natural

>  <m_Rgroups>  (298) 
[H],[OH],None,[OH]

>  <m_chem_types>  (298) 
1:backbone_n,2:backbone_c,4:carboxyl

>  <m_activation_policy>  (298) 
canonical-sites-v1

$$$$

     RDKit          2D

 12 11  0  0  0  0  0  0  0  0999 V2000
   -3.5281   -0.5638    0.0000 R   0  0  0  0  0  1  0  0  0  0  0  0
   -2.1179   -1.0748    0.0000 N   0  0  0  0  0  0  0  0  0  0  0  0
   -1.8553   -2.5517    0.0000 C   0  0  0  0  0  0  0  0  0  0  0  0
   -0.9702   -0.1090    0.0000 C   0  0  0  0  0  0  0  0  0  0  0  0
    0.4401   -0.6200    0.0000 C   0  0  0  0  0  0  0  0  0  0  0  0
    1.5878    0.3458    0.0000 C   0  0  0  0  0  0  0  0  0  0  0  0
    2.9981   -0.1653    0.0000 C   0  0  0  0  0  0  0  0  0  0  0  0
    4.1458    0.8005    0.0000 R   0  0  0  0  0  1  0  0  0  0  0  0
    3.2606   -1.6421    0.0000 O   0  0  0  0  0  0  0  0  0  0  0  0
   -1.2327    1.3678    0.0000 C   0  0  0  0  0  0  0  0  0  0  0  0
   -0.0850    2.3336    0.0000 R   0  0  0  0  0  1  0  0  0  0  0  0
   -2.6430    1.8789    0.0000 O   0  0  0  0  0  0  0  0  0  0  0  0
  1  2  1  0
  2  3  1  0
  2  4  1  0
  4  5  1  6
  5  6  1  0
  6  7  1  0
  7  8  1  0
  7  9  2  0
  4 10  1  0
 10 11  1  0
 10 12  2  0
M  ISO  3   1   1   8   4  11   2
M  END
>  <symbol>  (299) 
meE

>  <m_abbr>  (299) 
meE

>  <m_name>  (299) 
N-Methyl-Glutamic acid

>  <m_type>  (299) 
aa

>  <m_subtype>  (299) 
natural

>  <m_Rgroups>  (299) 
[H],[OH],None,[OH]

>  <m_chem_types>  (299) 
1:backbone_n,2:backbone_c,4:carboxyl

>  <m_activation_policy>  (299) 
canonical-sites-v1

$$$$

     RDKit          2D

 13 12  0  0  0  0  0  0  0  0999 V2000
   -3.6603   -0.5247    0.0000 R   0  0  0  0  0  1  0  0  0  0  0  0
   -2.2769   -1.1044    0.0000 N   0  0  0  0  0  0  0  0  0  0  0  0
   -2.0872   -2.5924    0.0000 C   0  0  0  0  0  0  0  0  0  0  0  0
   -1.0831   -0.1962    0.0000 C   0  0  0  0  0  0  0  0  0  0  0  0
    0.3004   -0.7759    0.0000 C   0  0  0  0  0  0  0  0  0  0  0  0
    1.4942    0.1323    0.0000 C   0  0  0  0  0  0  0  0  0  0  0  0
    1.3045    1.6202    0.0000 O   0  0  0  0  0  0  0  0  0  0  0  0
    2.8776   -0.4475    0.0000 N   0  0  0  0  0  0  0  0  0  0  0  0
    4.0714    0.4608    0.0000 R   0  0  0  0  0  1  0  0  0  0  0  0
    3.0672   -1.9354    0.0000 R   0  0  0  0  0  1  0  0  0  0  0  0
   -1.2727    1.2918    0.0000 C   0  0  0  0  0  0  0  0  0  0  0  0
   -0.0789    2.2000    0.0000 R   0  0  0  0  0  1  0  0  0  0  0  0
   -2.6562    1.8715    0.0000 O   0  0  0  0  0  0  0  0  0  0  0  0
  1  2  1  0
  2  3  1  0
  2  4  1  0
  4  5  1  6
  5  6  1  0
  6  7  2  0
  6  8  1  0
  8  9  1  0
  8 10  1  0
  4 11  1  0
 11 12  1  0
 11 13  2  0
M  ISO  4   1   1   9   4  10   5  12   2
M  END
>  <symbol>  (300) 
meN

>  <m_abbr>  (300) 
meN

>  <m_name>  (300) 
N-Methyl-Asparagine

>  <m_type>  (300) 
aa

>  <m_subtype>  (300) 
natural

>  <m_Rgroups>  (300) 
[H],[OH],None,[H],[H]

>  <m_chem_types>  (300) 
1:backbone_n,2:backbone_c,4:amide_nh,5:amide_nh

>  <m_activation_policy>  (300) 
canonical-sites-v1

$$$$

     RDKit          2D

 14 13  0  0  0  0  0  0  0  0999 V2000
   -4.2577   -0.3004    0.0000 R   0  0  0  0  0  1  0  0  0  0  0  0
   -2.9091   -0.9571    0.0000 N   0  0  0  0  0  0  0  0  0  0  0  0
   -2.8035   -2.4534    0.0000 C   0  0  0  0  0  0  0  0  0  0  0  0
   -1.6661   -0.1175    0.0000 C   0  0  0  0  0  0  0  0  0  0  0  0
   -0.3175   -0.7743    0.0000 C   0  0  0  0  0  0  0  0  0  0  0  0
    0.9256    0.0653    0.0000 C   0  0  0  0  0  0  0  0  0  0  0  0
    2.2742   -0.5914    0.0000 C   0  0  0  0  0  0  0  0  0  0  0  0
    2.3797   -2.0877    0.0000 O   0  0  0  0  0  0  0  0  0  0  0  0
    3.5172    0.2481    0.0000 N   0  0  0  0  0  0  0  0  0  0  0  0
    4.8658   -0.4086    0.0000 R   0  0  0  0  0  1  0  0  0  0  0  0
    3.4117    1.7444    0.0000 R   0  0  0  0  0  1  0  0  0  0  0  0
   -1.7716    1.3787    0.0000 C   0  0  0  0  0  0  0  0  0  0  0  0
   -0.5286    2.2183    0.0000 R   0  0  0  0  0  1  0  0  0  0  0  0
   -3.1202    2.0355    0.0000 O   0  0  0  0  0  0  0  0  0  0  0  0
  1  2  1  0
  2  3  1  0
  2  4  1  0
  4  5  1  6
  5  6  1  0
  6  7  1  0
  7  8  2  0
  7  9  1  0
  9 10  1  0
  9 11  1  0
  4 12  1  0
 12 13  1  0
 12 14  2  0
M  ISO  4   1   1  10   4  11   5  13   2
M  END
>  <symbol>  (301) 
meQ

>  <m_abbr>  (301) 
meQ

>  <m_name>  (301) 
N-Methyl-Glutamine

>  <m_type>  (301) 
aa

>  <m_subtype>  (301) 
natural

>  <m_Rgroups>  (301) 
[H],[OH],None,[H],[H]

>  <m_chem_types>  (301) 
1:backbone_n,2:backbone_c,4:amide_nh,5:amide_nh

>  <m_activation_policy>  (301) 
canonical-sites-v1

$$$$

     RDKit          2D

 14 13  0  0  0  0  0  0  0  0999 V2000
   -4.6155   -0.4823    0.0000 R   0  0  0  0  0  1  0  0  0  0  0  0
   -3.2318   -1.0614    0.0000 N   0  0  0  0  0  0  0  0  0  0  0  0
   -3.0416   -2.5493    0.0000 C   0  0  0  0  0  0  0  0  0  0  0  0
   -2.0384   -0.1527    0.0000 C   0  0  0  0  0  0  0  0  0  0  0  0
   -0.6548   -0.7318    0.0000 C   0  0  0  0  0  0  0  0  0  0  0  0
    0.5386    0.1769    0.0000 C   0  0  0  0  0  0  0  0  0  0  0  0
    1.9223   -0.4023    0.0000 C   0  0  0  0  0  0  0  0  0  0  0  0
    3.1157    0.5065    0.0000 C   0  0  0  0  0  0  0  0  0  0  0  0
    4.4994   -0.0727    0.0000 N   0  0  0  0  0  0  0  0  0  0  0  0
    5.6928    0.8361    0.0000 R   0  0  0  0  0  1  0  0  0  0  0  0
    4.6897   -1.5606    0.0000 R   0  0  0  0  0  1  0  0  0  0  0  0
   -2.2287    1.3352    0.0000 C   0  0  0  0  0  0  0  0  0  0  0  0
   -1.0353    2.2439    0.0000 R   0  0  0  0  0  1  0  0  0  0  0  0
   -3.6124    1.9144    0.0000 O   0  0  0  0  0  0  0  0  0  0  0  0
  1  2  1  0
  2  3  1  0
  2  4  1  0
  4  5  1  6
  5  6  1  0
  6  7  1  0
  7  8  1  0
  8  9  1  0
  9 10  1  0
  9 11  1  0
  4 12  1  0
 12 13  1  0
 12 14  2  0
M  ISO  4   1   1  10   4  11   5  13   2
M  END
>  <symbol>  (302) 
meK

>  <m_abbr>  (302) 
meK

>  <m_name>  (302) 
N-Methyl-Lysine

>  <m_type>  (302) 
aa

>  <m_subtype>  (302) 
natural

>  <m_Rgroups>  (302) 
[H],[OH],None,[H],[H]

>  <m_chem_types>  (302) 
1:backbone_n,2:backbone_c,4:amine_primary,5:amine_primary

>  <m_activation_policy>  (302) 
canonical-sites-v1

$$$$

     RDKit          2D

 11 10  0  0  0  0  0  0  0  0999 V2000
   -3.3018   -0.2248    0.0000 R   0  0  0  0  0  1  0  0  0  0  0  0
   -1.9832   -0.9398    0.0000 N   0  0  0  0  0  0  0  0  0  0  0  0
   -1.9430   -2.4392    0.0000 C   0  0  0  0  0  0  0  0  0  0  0  0
   -0.7047   -0.1553    0.0000 C   0  0  0  0  0  0  0  0  0  0  0  0
    0.6140   -0.8702    0.0000 C   0  0  0  0  0  0  0  0  0  0  0  0
    1.8925   -0.0858    0.0000 C   0  0  0  0  0  0  0  0  0  0  0  0
    3.2111   -0.8007    0.0000 S   0  0  0  0  0  0  0  0  0  0  0  0
    4.4896   -0.0162    0.0000 C   0  0  0  0  0  0  0  0  0  0  0  0
   -0.7448    1.3442    0.0000 C   0  0  0  0  0  0  0  0  0  0  0  0
    0.5337    2.1287    0.0000 R   0  0  0  0  0  1  0  0  0  0  0  0
   -2.0634    2.0592    0.0000 O   0  0  0  0  0  0  0  0  0  0  0  0
  1  2  1  0
  2  3  1  0
  2  4  1  0
  4  5  1  6
  5  6  1  0
  6  7  1  0
  7  8  1  0
  4  9  1  0
  9 10  1  0
  9 11  2  0
M  ISO  2   1   1  10   2
M  END
>  <symbol>  (303) 
meM

>  <m_abbr>  (303) 
meM

>  <m_name>  (303) 
N-Methyl-Methionine

>  <m_type>  (303) 
aa

>  <m_subtype>  (303) 
natural

>  <m_Rgroups>  (303) 
[H],[OH]

>  <m_chem_types>  (303) 
1:backbone_n,2:backbone_c

>  <m_activation_policy>  (303) 
canonical-sites-v1

$$$$

     RDKit          2D

  9  8  0  0  0  0  0  0  0  0999 V2000
   -2.0356    1.6484    0.0000 R   0  0  0  0  0  1  0  0  0  0  0  0
   -1.6807    0.1911    0.0000 N   0  0  0  0  0  0  0  0  0  0  0  0
   -2.7653   -0.8450    0.0000 R   0  0  0  0  0  1  0  0  0  0  0  0
   -0.2410   -0.2302    0.0000 C   0  0  0  0  0  0  0  0  0  0  0  0
   -0.6623   -1.6699    0.0000 C   0  0  0  0  0  0  0  0  0  0  0  0
    0.1803    1.2094    0.0000 C   0  0  0  0  0  0  0  0  0  0  0  0
    1.1986   -0.6515    0.0000 C   0  0  0  0  0  0  0  0  0  0  0  0
    2.2832    0.3846    0.0000 O   0  0  0  0  0  0  0  0  0  0  0  0
    3.7229   -0.0367    0.0000 R   0  0  0  0  0  1  0  0  0  0  0  0
  1  2  1  0
  2  3  1  0
  2  4  1  0
  4  5  1  0
  4  6  1  0
  4  7  1  0
  7  8  1  0
  8  9  1  0
M  ISO  3   1   1   3   3   9   2
M  END
>  <symbol>  (304) 
Aib_ol

>  <m_abbr>  (304) 
Aib_ol

>  <m_name>  (304) 
2-amino-2-methylpropan-1-ol

>  <m_type>  (304) 
aa

>  <m_subtype>  (304) 
natural

>  <m_Rgroups>  (304) 
[H],[H],[H]

>  <m_chem_types>  (304) 
1:backbone_n,2:hydroxyl,3:backbone_n_mod

>  <m_activation_policy>  (304) 
canonical-sites-v1

$$$$

     RDKit          2D

  8  7  0  0  0  0  0  0  0  0999 V2000
   -1.6954    1.8105    0.0000 R   0  0  0  0  0  1  0  0  0  0  0  0
   -1.6371    0.3117    0.0000 N   0  0  0  0  0  0  0  0  0  0  0  0
   -2.9061   -0.4882    0.0000 R   0  0  0  0  0  1  0  0  0  0  0  0
   -0.3100   -0.3873    0.0000 C   0  0  0  0  0  0  0  0  0  0  0  0
   -0.2517   -1.8862    0.0000 C   0  0  0  0  0  0  0  0  0  0  0  0
    0.9590    0.4126    0.0000 C   0  0  0  0  0  0  0  0  0  0  0  0
    2.2862   -0.2864    0.0000 O   0  0  0  0  0  0  0  0  0  0  0  0
    3.5551    0.5134    0.0000 R   0  0  0  0  0  1  0  0  0  0  0  0
  1  2  1  0
  2  3  1  0
  2  4  1  0
  4  5  1  6
  4  6  1  0
  6  7  1  0
  7  8  1  0
M  ISO  3   1   1   3   3   8   2
M  END
>  <symbol>  (305) 
Ala_ol

>  <m_abbr>  (305) 
Ala_ol

>  <m_name>  (305) 
(2S)-2-aminopropan-1-ol

>  <m_type>  (305) 
aa

>  <m_subtype>  (305) 
natural

>  <m_Rgroups>  (305) 
[H],[H],[H]

>  <m_chem_types>  (305) 
1:backbone_n,2:hydroxyl,3:backbone_n_mod

>  <m_activation_policy>  (305) 
canonical-sites-v1

$$$$

     RDKit          2D

 13 13  0  0  0  0  0  0  0  0999 V2000
   -2.7018   -1.7450    0.0000 R   0  0  0  0  0  1  0  0  0  0  0  0
   -1.2204   -1.5094    0.0000 N   0  0  0  0  0  0  0  0  0  0  0  0
   -0.2757   -2.6746    0.0000 R   0  0  0  0  0  1  0  0  0  0  0  0
   -0.6837   -0.1087    0.0000 C   0  0  0  0  0  0  0  0  0  0  0  0
   -1.6284    1.0564    0.0000 C   0  0  0  0  0  0  0  0  0  0  0  0
   -3.1098    0.8208    0.0000 O   0  0  0  0  0  0  0  0  0  0  0  0
   -4.0545    1.9859    0.0000 R   0  0  0  0  0  1  0  0  0  0  0  0
    0.7977    0.1269    0.0000 C   0  0  0  0  0  0  0  0  0  0  0  0
    1.3343    1.5276    0.0000 C   0  0  0  0  0  0  0  0  0  0  0  0
    2.8157    1.7632    0.0000 C   0  0  0  0  0  0  0  0  0  0  0  0
    3.7604    0.5980    0.0000 C   0  0  0  0  0  0  0  0  0  0  0  0
    3.2238   -0.8027    0.0000 C   0  0  0  0  0  0  0  0  0  0  0  0
    1.7424   -1.0383    0.0000 C   0  0  0  0  0  0  0  0  0  0  0  0
  1  2  1  0
  2  3  1  0
  2  4  1  0
  4  5  1  0
  5  6  1  0
  6  7  1  0
  4  8  1  0
  8  9  2  0
  9 10  1  0
 10 11  2  0
 11 12  1  0
 12 13  2  0
 13  8  1  0
M  ISO  3   1   1   3   3   7   2
M  END
>  <symbol>  (306) 
D_Phg_ol

>  <m_abbr>  (306) 
D_Phg_ol

>  <m_name>  (306) 
(2R)-2-amino-2-phenylethanol

>  <m_type>  (306) 
aa

>  <m_subtype>  (306) 
natural

>  <m_Rgroups>  (306) 
[H],[H],[H]

>  <m_chem_types>  (306) 
1:backbone_n,2:hydroxyl,3:backbone_n_mod

>  <m_activation_policy>  (306) 
canonical-sites-v1

$$$$

     RDKit          2D

  9  9  0  0  0  0  0  0  0  0999 V2000
    1.4216   -2.2739    0.0000 R   0  0  0  0  0  1  0  0  0  0  0  0
    1.3339   -0.7765    0.0000 N   0  0  0  0  0  0  0  0  0  0  0  0
    2.4938    0.1746    0.0000 C   0  0  0  0  0  0  0  0  0  0  0  0
    1.9477    1.5717    0.0000 C   0  0  0  0  0  0  0  0  0  0  0  0
    0.4503    1.4840    0.0000 C   0  0  0  0  0  0  0  0  0  0  0  0
    0.0709    0.0327    0.0000 C   0  0  0  0  0  0  0  0  0  0  0  0
   -1.3261   -0.5134    0.0000 C   0  0  0  0  0  0  0  0  0  0  0  0
   -2.4976    0.4234    0.0000 O   0  0  0  0  0  0  0  0  0  0  0  0
   -3.8946   -0.1227    0.0000 R   0  0  0  0  0  1  0  0  0  0  0  0
  1  2  1  0
  2  3  1  0
  3  4  1  0
  4  5  1  0
  5  6  1  0
  6  7  1  1
  7  8  1  0
  8  9  1  0
  6  2  1  0
M  ISO  2   1   1   9   2
M  END
>  <symbol>  (307) 
D_Pro_ol

>  <m_abbr>  (307) 
D_Pro_ol

>  <m_name>  (307) 
[(2R)-pyrrolidin-2-yl]methanol

>  <m_type>  (307) 
aa

>  <m_subtype>  (307) 
natural

>  <m_Rgroups>  (307) 
[H],[H]

>  <m_chem_types>  (307) 
1:backbone_n,2:hydroxyl

>  <m_activation_policy>  (307) 
canonical-sites-v1

$$$$

     RDKit          2D

 11 10  0  0  0  0  0  0  0  0999 V2000
   -2.2033   -1.6585    0.0000 R   0  0  0  0  0  1  0  0  0  0  0  0
   -0.7054   -1.7369    0.0000 N   0  0  0  0  0  0  0  0  0  0  0  0
   -0.0243   -3.0734    0.0000 R   0  0  0  0  0  1  0  0  0  0  0  0
    0.1115   -0.4789    0.0000 C   0  0  0  0  0  0  0  0  0  0  0  0
    1.6094   -0.5573    0.0000 C   0  0  0  0  0  0  0  0  0  0  0  0
    2.4263    0.7008    0.0000 O   0  0  0  0  0  0  0  0  0  0  0  0
    3.9243    0.6224    0.0000 R   0  0  0  0  0  1  0  0  0  0  0  0
   -0.5696    0.8576    0.0000 C   0  0  0  0  0  0  0  0  0  0  0  0
    0.2473    2.1157    0.0000 C   0  0  0  0  0  0  0  0  0  0  0  0
   -2.0675    0.9360    0.0000 O   0  0  0  0  0  0  0  0  0  0  0  0
   -2.7486    2.2725    0.0000 R   0  0  0  0  0  1  0  0  0  0  0  0
  1  2  1  0
  2  3  1  0
  2  4  1  0
  4  5  1  1
  5  6  1  0
  6  7  1  0
  4  8  1  0
  8  9  1  6
  8 10  1  0
 10 11  1  0
M  ISO  4   1   1   3   3   7   2  11   4
M  END
>  <symbol>  (308) 
D_Thr_ol

>  <m_abbr>  (308) 
D_Thr_ol

>  <m_name>  (308) 
(2R,3R)-2-aminobutane-1,3-diol

>  <m_type>  (308) 
aa

>  <m_subtype>  (308) 
natural

>  <m_Rgroups>  (308) 
[H],[H],[H],[H]

>  <m_chem_types>  (308) 
1:backbone_n,2:hydroxyl,3:backbone_n_mod,4:hydroxyl

>  <m_activation_policy>  (308) 
canonical-sites-v1

$$$$

     RDKit          2D

  6  5  0  0  0  0  0  0  0  0999 V2000
   -2.2689    0.9563    0.0000 R   0  0  0  0  0  1  0  0  0  0  0  0
   -1.0893    0.0297    0.0000 N   0  0  0  0  0  0  0  0  0  0  0  0
   -1.3020   -1.4551    0.0000 R   0  0  0  0  0  1  0  0  0  0  0  0
    0.3029    0.5880    0.0000 C   0  0  0  0  0  0  0  0  0  0  0  0
    1.4825   -0.3386    0.0000 O   0  0  0  0  0  0  0  0  0  0  0  0
    2.8748    0.2197    0.0000 R   0  0  0  0  0  1  0  0  0  0  0  0
  1  2  1  0
  2  3  1  0
  2  4  1  0
  4  5  1  0
  5  6  1  0
M  ISO  3   1   1   3   3   6   2
M  END
>  <symbol>  (309) 
Gly_ol

>  <m_abbr>  (309) 
Gly_ol

>  <m_name>  (309) 
aminomethanol

>  <m_type>  (309) 
aa

>  <m_subtype>  (309) 
natural

>  <m_Rgroups>  (309) 
[H],[H],[H]

>  <m_chem_types>  (309) 
1:backbone_n,2:hydroxyl,3:backbone_n_mod

>  <m_activation_policy>  (309) 
canonical-sites-v1

$$$$

     RDKit          2D

  8  8  0  0  0  0  0  0  0  0999 V2000
   -2.7475   -0.1561    0.0000 R   0  0  0  0  0  1  0  0  0  0  0  0
   -1.5934   -1.1143    0.0000 N   0  0  0  0  0  0  0  0  0  0  0  0
   -0.1866   -0.5940    0.0000 C   0  0  0  0  0  0  0  0  0  0  0  0
    1.0613   -1.4263    0.0000 C   0  0  0  0  0  0  0  0  0  0  0  0
    2.2385   -0.4968    0.0000 C   0  0  0  0  0  0  0  0  0  0  0  0
    1.7182    0.9101    0.0000 O   0  0  0  0  0  0  0  0  0  0  0  0
    0.2195    0.8500    0.0000 C   0  0  0  0  0  0  0  0  0  0  0  0
   -0.7101    2.0273    0.0000 O   0  0  0  0  0  0  0  0  0  0  0  0
  1  2  1  0
  3  2  1  6
  3  4  1  0
  4  5  1  0
  5  6  1  0
  6  7  1  0
  7  8  2  0
  7  3  1  0
M  ISO  1   1   1
M  END
>  <symbol>  (310) 
Hsl

>  <m_abbr>  (310) 
Hsl

>  <m_name>  (310) 
(3S)-3-aminooxolan-2-one

>  <m_type>  (310) 
aa

>  <m_subtype>  (310) 
natural

>  <m_Rgroups>  (310) 
[H]

>  <m_chem_types>  (310) 
1:backbone_n

>  <m_activation_policy>  (310) 
canonical-sites-v1

$$$$

     RDKit          2D

 11 10  0  0  0  0  0  0  0  0999 V2000
   -3.0682    1.2990    0.0000 R   0  0  0  0  0  1  0  0  0  0  0  0
   -2.3182    0.0000    0.0000 N   0  0  0  0  0  0  0  0  0  0  0  0
   -3.0682   -1.2990    0.0000 R   0  0  0  0  0  1  0  0  0  0  0  0
   -0.8182   -0.0000    0.0000 C   0  0  0  0  0  0  0  0  0  0  0  0
   -0.0682    1.2990    0.0000 C   0  0  0  0  0  0  0  0  0  0  0  0
    1.4318    1.2990    0.0000 O   0  0  0  0  0  0  0  0  0  0  0  0
    2.1818    2.5981    0.0000 R   0  0  0  0  0  1  0  0  0  0  0  0
   -0.0682   -1.2990    0.0000 C   0  0  0  0  0  0  0  0  0  0  0  0
    1.4318   -1.2990    0.0000 C   0  0  0  0  0  0  0  0  0  0  0  0
    2.1818   -2.5981    0.0000 C   0  0  0  0  0  0  0  0  0  0  0  0
    2.1818    0.0000    0.0000 C   0  0  0  0  0  0  0  0  0  0  0  0
  1  2  1  0
  2  3  1  0
  2  4  1  0
  4  5  1  6
  5  6  1  0
  6  7  1  0
  4  8  1  0
  8  9  1  0
  9 10  1  0
  9 11  1  0
M  ISO  3   1   1   3   3   7   2
M  END
>  <symbol>  (311) 
Leu_ol

>  <m_abbr>  (311) 
Leu_ol

>  <m_name>  (311) 
(2S)-2-amino-4-methylpentan-1-ol

>  <m_type>  (311) 
aa

>  <m_subtype>  (311) 
natural

>  <m_Rgroups>  (311) 
[H],[H],[H]

>  <m_chem_types>  (311) 
1:backbone_n,2:hydroxyl,3:backbone_n_mod

>  <m_activation_policy>  (311) 
canonical-sites-v1

$$$$

     RDKit          2D

 14 13  0  0  0  0  0  0  0  0999 V2000
   -4.7966   -0.5224    0.0000 R   0  0  0  0  0  1  0  0  0  0  0  0
   -3.4240   -1.1274    0.0000 N   0  0  0  0  0  0  0  0  0  0  0  0
   -3.2616   -2.6185    0.0000 R   0  0  0  0  0  1  0  0  0  0  0  0
   -2.2138   -0.2411    0.0000 C   0  0  0  0  0  0  0  0  0  0  0  0
   -0.8412   -0.8461    0.0000 C   0  0  0  0  0  0  0  0  0  0  0  0
    0.3690    0.0402    0.0000 C   0  0  0  0  0  0  0  0  0  0  0  0
    1.7416   -0.5648    0.0000 C   0  0  0  0  0  0  0  0  0  0  0  0
    2.9518    0.3215    0.0000 C   0  0  0  0  0  0  0  0  0  0  0  0
    4.3244   -0.2834    0.0000 N   0  0  0  0  0  0  0  0  0  0  0  0
    5.5346    0.6028    0.0000 R   0  0  0  0  0  1  0  0  0  0  0  0
    4.4868   -1.7746    0.0000 R   0  0  0  0  0  1  0  0  0  0  0  0
   -2.3762    1.2501    0.0000 C   0  0  0  0  0  0  0  0  0  0  0  0
   -1.1660    2.1363    0.0000 O   0  0  0  0  0  0  0  0  0  0  0  0
   -1.3285    3.6275    0.0000 R   0  0  0  0  0  1  0  0  0  0  0  0
  1  2  1  0
  2  3  1  0
  2  4  1  0
  4  5  1  6
  5  6  1  0
  6  7  1  0
  7  8  1  0
  8  9  1  0
  9 10  1  0
  9 11  1  0
  4 12  1  0
 12 13  1  0
 13 14  1  0
M  ISO  5   1   1   3   3  10   4  11   5  14   2
M  END
>  <symbol>  (312) 
Lys_ol

>  <m_abbr>  (312) 
Lys_ol

>  <m_name>  (312) 
(2S)-2,6-diaminohexan-1-ol

>  <m_type>  (312) 
aa

>  <m_subtype>  (312) 
natural

>  <m_Rgroups>  (312) 
[H],[H],[H],[H],[H]

>  <m_chem_types>  (312) 
1:backbone_n,2:hydroxyl,3:backbone_n_mod,4:amine_primary,5:amine_primary

>  <m_activation_policy>  (312) 
canonical-sites-v1

$$$$

     RDKit          2D

 14 14  0  0  0  0  0  0  0  0999 V2000
   -2.2910    1.9457    0.0000 R   0  0  0  0  0  1  0  0  0  0  0  0
   -1.0899    1.0471    0.0000 N   0  0  0  0  0  0  0  0  0  0  0  0
    0.2888    1.6380    0.0000 R   0  0  0  0  0  1  0  0  0  0  0  0
   -1.2675   -0.4423    0.0000 C   0  0  0  0  0  0  0  0  0  0  0  0
   -2.6462   -1.0332    0.0000 C   0  0  0  0  0  0  0  0  0  0  0  0
   -3.8473   -0.1347    0.0000 O   0  0  0  0  0  0  0  0  0  0  0  0
   -5.2260   -0.7256    0.0000 R   0  0  0  0  0  1  0  0  0  0  0  0
   -0.0665   -1.3409    0.0000 C   0  0  0  0  0  0  0  0  0  0  0  0
    1.3123   -0.7499    0.0000 C   0  0  0  0  0  0  0  0  0  0  0  0
    1.4899    0.7395    0.0000 C   0  0  0  0  0  0  0  0  0  0  0  0
    2.8686    1.3304    0.0000 C   0  0  0  0  0  0  0  0  0  0  0  0
    4.0697    0.4319    0.0000 C   0  0  0  0  0  0  0  0  0  0  0  0
    3.8921   -1.0576    0.0000 C   0  0  0  0  0  0  0  0  0  0  0  0
    2.5133   -1.6485    0.0000 C   0  0  0  0  0  0  0  0  0  0  0  0
  1  2  1  0
  2  3  1  0
  2  4  1  0
  4  5  1  1
  5  6  1  0
  6  7  1  0
  4  8  1  0
  8  9  1  0
  9 10  2  0
 10 11  1  0
 11 12  2  0
 12 13  1  0
 13 14  2  0
 14  9  1  0
M  ISO  3   1   1   3   3   7   2
M  END
>  <symbol>  (313) 
Phe_ol

>  <m_abbr>  (313) 
Phe_ol

>  <m_name>  (313) 
(2S)-2-amino-3-phenylpropan-1-ol

>  <m_type>  (313) 
aa

>  <m_subtype>  (313) 
natural

>  <m_Rgroups>  (313) 
[H],[H],[H]

>  <m_chem_types>  (313) 
1:backbone_n,2:hydroxyl,3:backbone_n_mod

>  <m_activation_policy>  (313) 
canonical-sites-v1

$$$$

     RDKit          2D

 13 13  0  0  0  0  0  0  0  0999 V2000
   -2.7018   -1.7450    0.0000 R   0  0  0  0  0  1  0  0  0  0  0  0
   -1.2204   -1.5094    0.0000 N   0  0  0  0  0  0  0  0  0  0  0  0
   -0.2757   -2.6746    0.0000 R   0  0  0  0  0  1  0  0  0  0  0  0
   -0.6837   -0.1087    0.0000 C   0  0  0  0  0  0  0  0  0  0  0  0
   -1.6284    1.0564    0.0000 C   0  0  0  0  0  0  0  0  0  0  0  0
   -3.1098    0.8208    0.0000 O   0  0  0  0  0  0  0  0  0  0  0  0
   -4.0545    1.9859    0.0000 R   0  0  0  0  0  1  0  0  0  0  0  0
    0.7977    0.1269    0.0000 C   0  0  0  0  0  0  0  0  0  0  0  0
    1.3343    1.5276    0.0000 C   0  0  0  0  0  0  0  0  0  0  0  0
    2.8157    1.7632    0.0000 C   0  0  0  0  0  0  0  0  0  0  0  0
    3.7604    0.5980    0.0000 C   0  0  0  0  0  0  0  0  0  0  0  0
    3.2238   -0.8027    0.0000 C   0  0  0  0  0  0  0  0  0  0  0  0
    1.7424   -1.0383    0.0000 C   0  0  0  0  0  0  0  0  0  0  0  0
  1  2  1  0
  2  3  1  0
  2  4  1  0
  4  5  1  6
  5  6  1  0
  6  7  1  0
  4  8  1  0
  8  9  2  0
  9 10  1  0
 10 11  2  0
 11 12  1  0
 12 13  2  0
 13  8  1  0
M  ISO  3   1   1   3   3   7   2
M  END
>  <symbol>  (314) 
Phg_ol

>  <m_abbr>  (314) 
Phg_ol

>  <m_name>  (314) 
(2S)-2-amino-2-phenylethanol

>  <m_type>  (314) 
aa

>  <m_subtype>  (314) 
natural

>  <m_Rgroups>  (314) 
[H],[H],[H]

>  <m_chem_types>  (314) 
1:backbone_n,2:hydroxyl,3:backbone_n_mod

>  <m_activation_policy>  (314) 
canonical-sites-v1

$$$$

     RDKit          2D

  9  9  0  0  0  0  0  0  0  0999 V2000
    1.4216   -2.2739    0.0000 R   0  0  0  0  0  1  0  0  0  0  0  0
    1.3339   -0.7765    0.0000 N   0  0  0  0  0  0  0  0  0  0  0  0
    2.4938    0.1746    0.0000 C   0  0  0  0  0  0  0  0  0  0  0  0
    1.9477    1.5717    0.0000 C   0  0  0  0  0  0  0  0  0  0  0  0
    0.4503    1.4840    0.0000 C   0  0  0  0  0  0  0  0  0  0  0  0
    0.0709    0.0327    0.0000 C   0  0  0  0  0  0  0  0  0  0  0  0
   -1.3261   -0.5134    0.0000 C   0  0  0  0  0  0  0  0  0  0  0  0
   -2.4976    0.4234    0.0000 O   0  0  0  0  0  0  0  0  0  0  0  0
   -3.8946   -0.1227    0.0000 R   0  0  0  0  0  1  0  0  0  0  0  0
  1  2  1  0
  2  3  1  0
  3  4  1  0
  4  5  1  0
  5  6  1  0
  6  7  1  6
  7  8  1  0
  8  9  1  0
  6  2  1  0
M  ISO  2   1   1   9   2
M  END
>  <symbol>  (315) 
Pro_ol

>  <m_abbr>  (315) 
Pro_ol

>  <m_name>  (315) 
[(2S)-pyrrolidin-2-yl]methanol

>  <m_type>  (315) 
aa

>  <m_subtype>  (315) 
natural

>  <m_Rgroups>  (315) 
[H],[H]

>  <m_chem_types>  (315) 
1:backbone_n,2:hydroxyl

>  <m_activation_policy>  (315) 
canonical-sites-v1

$$$$

     RDKit          2D

 11 10  0  0  0  0  0  0  0  0999 V2000
   -2.2033   -1.6585    0.0000 R   0  0  0  0  0  1  0  0  0  0  0  0
   -0.7054   -1.7369    0.0000 N   0  0  0  0  0  0  0  0  0  0  0  0
   -0.0243   -3.0734    0.0000 R   0  0  0  0  0  1  0  0  0  0  0  0
    0.1115   -0.4789    0.0000 C   0  0  0  0  0  0  0  0  0  0  0  0
    1.6094   -0.5573    0.0000 C   0  0  0  0  0  0  0  0  0  0  0  0
    2.4263    0.7008    0.0000 O   0  0  0  0  0  0  0  0  0  0  0  0
    3.9243    0.6224    0.0000 R   0  0  0  0  0  1  0  0  0  0  0  0
   -0.5696    0.8576    0.0000 C   0  0  0  0  0  0  0  0  0  0  0  0
    0.2473    2.1157    0.0000 C   0  0  0  0  0  0  0  0  0  0  0  0
   -2.0675    0.9360    0.0000 O   0  0  0  0  0  0  0  0  0  0  0  0
   -2.7486    2.2725    0.0000 R   0  0  0  0  0  1  0  0  0  0  0  0
  1  2  1  0
  2  3  1  0
  2  4  1  0
  4  5  1  6
  5  6  1  0
  6  7  1  0
  4  8  1  0
  8  9  1  1
  8 10  1  0
 10 11  1  0
M  ISO  4   1   1   3   3   7   2  11   4
M  END
>  <symbol>  (316) 
Thr_ol

>  <m_abbr>  (316) 
Thr_ol

>  <m_name>  (316) 
(2S,3S)-2-aminobutane-1,3-diol

>  <m_type>  (316) 
aa

>  <m_subtype>  (316) 
natural

>  <m_Rgroups>  (316) 
[H],[H],[H],[H]

>  <m_chem_types>  (316) 
1:backbone_n,2:hydroxyl,3:backbone_n_mod,4:hydroxyl

>  <m_activation_policy>  (316) 
canonical-sites-v1

$$$$

     RDKit          2D

 10  9  0  0  0  0  0  0  0  0999 V2000
   -1.5052    2.4340    0.0000 R   0  0  0  0  0  1  0  0  0  0  0  0
   -1.5385    0.9344    0.0000 N   0  0  0  0  0  0  0  0  0  0  0  0
   -2.8539    0.2134    0.0000 R   0  0  0  0  0  1  0  0  0  0  0  0
   -0.2564    0.1557    0.0000 C   0  0  0  0  0  0  0  0  0  0  0  0
    1.0589    0.8767    0.0000 C   0  0  0  0  0  0  0  0  0  0  0  0
    2.3410    0.0981    0.0000 O   0  0  0  0  0  0  0  0  0  0  0  0
    3.6564    0.8191    0.0000 R   0  0  0  0  0  1  0  0  0  0  0  0
   -0.2897   -1.3439    0.0000 C   0  0  0  0  0  0  0  0  0  0  0  0
    0.9924   -2.1225    0.0000 C   0  0  0  0  0  0  0  0  0  0  0  0
   -1.6051   -2.0649    0.0000 C   0  0  0  0  0  0  0  0  0  0  0  0
  1  2  1  0
  2  3  1  0
  2  4  1  0
  4  5  1  6
  5  6  1  0
  6  7  1  0
  4  8  1  0
  8  9  1  0
  8 10  1  0
M  ISO  3   1   1   3   3   7   2
M  END
>  <symbol>  (317) 
Val_ol

>  <m_abbr>  (317) 
Val_ol

>  <m_name>  (317) 
(2S)-2-amino-3-methylbutan-1-ol

>  <m_type>  (317) 
aa

>  <m_subtype>  (317) 
natural

>  <m_Rgroups>  (317) 
[H],[H],[H]

>  <m_chem_types>  (317) 
1:backbone_n,2:hydroxyl,3:backbone_n_mod

>  <m_activation_policy>  (317) 
canonical-sites-v1

$$$$

     RDKit          2D

  8  7  0  0  0  0  0  0  0  0999 V2000
   -1.2990    1.6875    0.0000 R   0  0  0  0  0  1  0  0  0  0  0  0
   -1.2990    0.1875    0.0000 N   0  0  0  0  0  0  0  0  0  0  0  0
   -2.5981   -0.5625    0.0000 R   0  0  0  0  0  1  0  0  0  0  0  0
    0.0000   -0.5625    0.0000 C   0  0  0  0  0  0  0  0  0  0  0  0
    0.0000   -2.0625    0.0000 C   0  0  0  0  0  0  0  0  0  0  0  0
    1.2990    0.1875    0.0000 C   0  0  0  0  0  0  0  0  0  0  0  0
    2.5981   -0.5625    0.0000 R   0  0  0  0  0  1  0  0  0  0  0  0
    1.2990    1.6875    0.0000 O   0  0  0  0  0  0  0  0  0  0  0  0
  1  2  1  0
  2  3  1  0
  2  4  1  0
  4  5  1  6
  4  6  1  0
  6  7  1  0
  6  8  2  0
M  ISO  3   1   1   3   3   7   2
M  END
>  <symbol>  (318) 
Ala_al

>  <m_abbr>  (318) 
Ala_al

>  <m_name>  (318) 
(2S)-2-aminopropanal

>  <m_type>  (318) 
aa

>  <m_subtype>  (318) 
natural

>  <m_Rgroups>  (318) 
[H],[H],[H]

>  <m_chem_types>  (318) 
1:backbone_n,2:backbone_c,3:backbone_n_mod

>  <m_activation_policy>  (318) 
canonical-sites-v1

$$$$

     RDKit          2D

  7  6  0  0  0  0  0  0  0  0999 V2000
   -2.5981    0.8571    0.0000 R   0  0  0  0  0  1  0  0  0  0  0  0
   -1.2990    0.1071    0.0000 N   0  0  0  0  0  0  0  0  0  0  0  0
   -1.2990   -1.3929    0.0000 R   0  0  0  0  0  1  0  0  0  0  0  0
    0.0000    0.8571    0.0000 C   0  0  0  0  0  0  0  0  0  0  0  0
    1.2990    0.1071    0.0000 C   0  0  0  0  0  0  0  0  0  0  0  0
    2.5981    0.8571    0.0000 R   0  0  0  0  0  1  0  0  0  0  0  0
    1.2990   -1.3929    0.0000 O   0  0  0  0  0  0  0  0  0  0  0  0
  1  2  1  0
  2  3  1  0
  2  4  1  0
  4  5  1  0
  5  6  1  0
  5  7  2  0
M  ISO  3   1   1   3   3   6   2
M  END
>  <symbol>  (319) 
Gly_al

>  <m_abbr>  (319) 
Gly_al

>  <m_name>  (319) 
2-aminoacetaldehyde

>  <m_type>  (319) 
aa

>  <m_subtype>  (319) 
natural

>  <m_Rgroups>  (319) 
[H],[H],[H]

>  <m_chem_types>  (319) 
1:backbone_n,2:backbone_c,3:backbone_n_mod

>  <m_activation_policy>  (319) 
canonical-sites-v1

$$$$

     RDKit          2D

 11 10  0  0  0  0  0  0  0  0999 V2000
   -3.0813    0.0866    0.0000 R   0  0  0  0  0  1  0  0  0  0  0  0
   -1.8784   -0.8095    0.0000 N   0  0  0  0  0  0  0  0  0  0  0  0
   -2.0531   -2.2993    0.0000 R   0  0  0  0  0  1  0  0  0  0  0  0
   -0.5009   -0.2159    0.0000 C   0  0  0  0  0  0  0  0  0  0  0  0
    0.7020   -1.1120    0.0000 C   0  0  0  0  0  0  0  0  0  0  0  0
    2.0795   -0.5184    0.0000 C   0  0  0  0  0  0  0  0  0  0  0  0
    3.2824   -1.4145    0.0000 C   0  0  0  0  0  0  0  0  0  0  0  0
    2.2541    0.9714    0.0000 C   0  0  0  0  0  0  0  0  0  0  0  0
   -0.3263    1.2739    0.0000 C   0  0  0  0  0  0  0  0  0  0  0  0
    1.0513    1.8676    0.0000 R   0  0  0  0  0  1  0  0  0  0  0  0
   -1.5291    2.1701    0.0000 O   0  0  0  0  0  0  0  0  0  0  0  0
  1  2  1  0
  2  3  1  0
  2  4  1  0
  4  5  1  6
  5  6  1  0
  6  7  1  0
  6  8  1  0
  4  9  1  0
  9 10  1  0
  9 11  2  0
M  ISO  3   1   1   3   3  10   2
M  END
>  <symbol>  (320) 
Leu_al

>  <m_abbr>  (320) 
Leu_al

>  <m_name>  (320) 
(2S)-2-amino-4-methylpentanal

>  <m_type>  (320) 
aa

>  <m_subtype>  (320) 
natural

>  <m_Rgroups>  (320) 
[H],[H],[H]

>  <m_chem_types>  (320) 
1:backbone_n,2:backbone_c,3:backbone_n_mod

>  <m_activation_policy>  (320) 
canonical-sites-v1

$$$$

     RDKit          2D

 14 13  0  0  0  0  0  0  0  0999 V2000
   -4.6155   -0.4823    0.0000 R   0  0  0  0  0  1  0  0  0  0  0  0
   -3.2318   -1.0614    0.0000 N   0  0  0  0  0  0  0  0  0  0  0  0
   -3.0416   -2.5493    0.0000 R   0  0  0  0  0  1  0  0  0  0  0  0
   -2.0384   -0.1527    0.0000 C   0  0  0  0  0  0  0  0  0  0  0  0
   -0.6548   -0.7318    0.0000 C   0  0  0  0  0  0  0  0  0  0  0  0
    0.5386    0.1769    0.0000 C   0  0  0  0  0  0  0  0  0  0  0  0
    1.9223   -0.4023    0.0000 C   0  0  0  0  0  0  0  0  0  0  0  0
    3.1157    0.5065    0.0000 C   0  0  0  0  0  0  0  0  0  0  0  0
    4.4994   -0.0727    0.0000 N   0  0  0  0  0  0  0  0  0  0  0  0
    5.6928    0.8361    0.0000 R   0  0  0  0  0  1  0  0  0  0  0  0
    4.6897   -1.5606    0.0000 R   0  0  0  0  0  1  0  0  0  0  0  0
   -2.2287    1.3352    0.0000 C   0  0  0  0  0  0  0  0  0  0  0  0
   -1.0353    2.2439    0.0000 R   0  0  0  0  0  1  0  0  0  0  0  0
   -3.6124    1.9144    0.0000 O   0  0  0  0  0  0  0  0  0  0  0  0
  1  2  1  0
  2  3  1  0
  2  4  1  0
  4  5  1  6
  5  6  1  0
  6  7  1  0
  7  8  1  0
  8  9  1  0
  9 10  1  0
  9 11  1  0
  4 12  1  0
 12 13  1  0
 12 14  2  0
M  ISO  5   1   1   3   3  10   4  11   5  13   2
M  END
>  <symbol>  (321) 
Lys_al

>  <m_abbr>  (321) 
Lys_al

>  <m_name>  (321) 
(2S)-2,6-diaminohexanal

>  <m_type>  (321) 
aa

>  <m_subtype>  (321) 
natural

>  <m_Rgroups>  (321) 
[H],[H],[H],[H],[H]

>  <m_chem_types>  (321) 
1:backbone_n,2:backbone_c,3:backbone_n_mod,4:amine_primary,5:amine_primary

>  <m_activation_policy>  (321) 
canonical-sites-v1

$$$$

     RDKit          2D

 14 14  0  0  0  0  0  0  0  0999 V2000
   -2.3413    2.2101    0.0000 R   0  0  0  0  0  1  0  0  0  0  0  0
   -1.1930    1.2450    0.0000 N   0  0  0  0  0  0  0  0  0  0  0  0
    0.2170    1.7569    0.0000 R   0  0  0  0  0  1  0  0  0  0  0  0
   -1.4546   -0.2320    0.0000 C   0  0  0  0  0  0  0  0  0  0  0  0
   -0.3063   -1.1971    0.0000 C   0  0  0  0  0  0  0  0  0  0  0  0
    1.1037   -0.6851    0.0000 C   0  0  0  0  0  0  0  0  0  0  0  0
    1.3653    0.7919    0.0000 C   0  0  0  0  0  0  0  0  0  0  0  0
    2.7752    1.3038    0.0000 C   0  0  0  0  0  0  0  0  0  0  0  0
    3.9235    0.3387    0.0000 C   0  0  0  0  0  0  0  0  0  0  0  0
    3.6619   -1.1383    0.0000 C   0  0  0  0  0  0  0  0  0  0  0  0
    2.2520   -1.6502    0.0000 C   0  0  0  0  0  0  0  0  0  0  0  0
   -2.8645   -0.7439    0.0000 C   0  0  0  0  0  0  0  0  0  0  0  0
   -4.0128    0.2211    0.0000 R   0  0  0  0  0  1  0  0  0  0  0  0
   -3.1261   -2.2209    0.0000 O   0  0  0  0  0  0  0  0  0  0  0  0
  1  2  1  0
  2  3  1  0
  2  4  1  0
  4  5  1  1
  5  6  1  0
  6  7  2  0
  7  8  1  0
  8  9  2  0
  9 10  1  0
 10 11  2  0
  4 12  1  0
 12 13  1  0
 12 14  2  0
 11  6  1  0
M  ISO  3   1   1   3   3  13   2
M  END
>  <symbol>  (322) 
Phe_al

>  <m_abbr>  (322) 
Phe_al

>  <m_name>  (322) 
(2S)-2-amino-3-phenylpropanal

>  <m_type>  (322) 
aa

>  <m_subtype>  (322) 
natural

>  <m_Rgroups>  (322) 
[H],[H],[H]

>  <m_chem_types>  (322) 
1:backbone_n,2:backbone_c,3:backbone_n_mod

>  <m_activation_policy>  (322) 
canonical-sites-v1

$$$$

     RDKit          2D

  9  9  0  0  0  0  0  0  0  0999 V2000
    0.5115   -2.3139    0.0000 R   0  0  0  0  0  1  0  0  0  0  0  0
    0.8624   -0.8555    0.0000 N   0  0  0  0  0  0  0  0  0  0  0  0
    2.2485   -0.2821    0.0000 C   0  0  0  0  0  0  0  0  0  0  0  0
    2.1314    1.2133    0.0000 C   0  0  0  0  0  0  0  0  0  0  0  0
    0.6730    1.5641    0.0000 C   0  0  0  0  0  0  0  0  0  0  0  0
   -0.1113    0.2855    0.0000 C   0  0  0  0  0  0  0  0  0  0  0  0
   -1.6067    0.1685    0.0000 C   0  0  0  0  0  0  0  0  0  0  0  0
   -2.4558    1.4051    0.0000 R   0  0  0  0  0  1  0  0  0  0  0  0
   -2.2531   -1.1851    0.0000 O   0  0  0  0  0  0  0  0  0  0  0  0
  1  2  1  0
  2  3  1  0
  3  4  1  0
  4  5  1  0
  5  6  1  0
  6  7  1  6
  7  8  1  0
  7  9  2  0
  6  2  1  0
M  ISO  2   1   1   8   2
M  END
>  <symbol>  (323) 
Pro_al

>  <m_abbr>  (323) 
Pro_al

>  <m_name>  (323) 
(2S)-pyrrolidine-2-carbaldehyde

>  <m_type>  (323) 
aa

>  <m_subtype>  (323) 
natural

>  <m_Rgroups>  (323) 
[H],[H]

>  <m_chem_types>  (323) 
1:backbone_n,2:backbone_c

>  <m_activation_policy>  (323) 
canonical-sites-v1

$$$$

     RDKit          2D

 13 13  0  0  0  0  0  0  0  0999 V2000
   -3.8123   -1.2868    0.0000 R   0  0  0  0  0  1  0  0  0  0  0  0
   -2.6987   -0.2818    0.0000 N   0  0  0  0  0  0  0  0  0  0  0  0
   -3.0122    1.1850    0.0000 C   0  0  0  0  0  0  0  0  0  0  0  0
   -1.2716   -0.7438    0.0000 C   0  0  0  0  0  0  0  0  0  0  0  0
   -0.1580    0.2612    0.0000 C   0  0  0  0  0  0  0  0  0  0  0  0
   -0.4715    1.7281    0.0000 C   0  0  0  0  0  0  0  0  0  0  0  0
    0.6420    2.7330    0.0000 C   0  0  0  0  0  0  0  0  0  0  0  0
    2.0691    2.2711    0.0000 C   0  0  0  0  0  0  0  0  0  0  0  0
    2.3827    0.8043    0.0000 C   0  0  0  0  0  0  0  0  0  0  0  0
    1.2691   -0.2007    0.0000 C   0  0  0  0  0  0  0  0  0  0  0  0
    1.5826   -1.6676    0.0000 C   0  0  0  0  0  0  0  0  0  0  0  0
    3.0097   -2.1295    0.0000 R   0  0  0  0  0  1  0  0  0  0  0  0
    0.4690   -2.6725    0.0000 O   0  0  0  0  0  0  0  0  0  0  0  0
  1  2  1  0
  2  3  1  0
  2  4  1  0
  4  5  1  0
  5  6  2  0
  6  7  1  0
  7  8  2  0
  8  9  1  0
  9 10  2  0
 10 11  1  0
 11 12  1  0
 11 13  2  0
 10  5  1  0
M  ISO  2   1   1  12   2
M  END
>  <symbol>  (324) 
NMe2Abz

>  <m_abbr>  (324) 
NMe2Abz

>  <m_name>  (324) 
2-(methylamino)benzoic acid

>  <m_type>  (324) 
aa

>  <m_subtype>  (324) 
natural

>  <m_Rgroups>  (324) 
[H],[OH]

>  <m_chem_types>  (324) 
1:backbone_n,2:backbone_c

>  <m_activation_policy>  (324) 
canonical-sites-v1

$$$$

     RDKit          2D

 12 12  0  0  0  0  0  0  0  0999 V2000
    3.7500   -1.2990    0.0000 R   0  0  0  0  0  1  0  0  0  0  0  0
    3.0000    0.0000    0.0000 N   0  0  0  0  0  0  0  0  0  0  0  0
    3.7500    1.2990    0.0000 C   0  0  0  0  0  0  0  0  0  0  0  0
    1.5000   -0.0000    0.0000 C   0  0  0  0  0  0  0  0  0  0  0  0
    0.7500   -1.2990    0.0000 C   0  0  0  0  0  0  0  0  0  0  0  0
   -0.7500   -1.2990    0.0000 C   0  0  0  0  0  0  0  0  0  0  0  0
   -1.5000    0.0000    0.0000 C   0  0  0  0  0  0  0  0  0  0  0  0
   -3.0000    0.0000    0.0000 C   0  0  0  0  0  0  0  0  0  0  0  0
   -3.7500    1.2990    0.0000 R   0  0  0  0  0  1  0  0  0  0  0  0
   -3.7500   -1.2990    0.0000 O   0  0  0  0  0  0  0  0  0  0  0  0
   -0.7500    1.2990    0.0000 C   0  0  0  0  0  0  0  0  0  0  0  0
    0.7500    1.2990    0.0000 C   0  0  0  0  0  0  0  0  0  0  0  0
  1  2  1  0
  2  3  1  0
  2  4  1  0
  4  5  1  0
  5  6  2  0
  6  7  1  0
  7  8  1  0
  8  9  1  0
  8 10  2  0
  7 11  2  0
 11 12  1  0
 12  4  2  0
M  ISO  2   1   1   9   2
M  END
>  <symbol>  (325) 
NMe4Abz

>  <m_abbr>  (325) 
NMe4Abz

>  <m_name>  (325) 
4-(methylamino)benzoic acid

>  <m_type>  (325) 
aa

>  <m_subtype>  (325) 
natural

>  <m_Rgroups>  (325) 
[H],[OH]

>  <m_chem_types>  (325) 
1:backbone_n,2:backbone_c

>  <m_activation_policy>  (325) 
canonical-sites-v1

$$$$

     RDKit          2D

  8  7  0  0  0  0  0  0  0  0999 V2000
   -3.1182    0.9820    0.0000 R   0  0  0  0  0  1  0  0  0  0  0  0
   -1.9843    0.0000    0.0000 N   0  0  0  0  0  0  0  0  0  0  0  0
   -2.2678   -1.4730    0.0000 C   0  0  0  0  0  0  0  0  0  0  0  0
   -0.5669    0.4910    0.0000 C   0  0  0  0  0  0  0  0  0  0  0  0
    0.5669   -0.4910    0.0000 C   0  0  0  0  0  0  0  0  0  0  0  0
    1.9843    0.0000    0.0000 C   0  0  0  0  0  0  0  0  0  0  0  0
    3.1182   -0.9820    0.0000 R   0  0  0  0  0  1  0  0  0  0  0  0
    2.2678    1.4730    0.0000 O   0  0  0  0  0  0  0  0  0  0  0  0
  1  2  1  0
  2  3  1  0
  2  4  1  0
  4  5  1  0
  5  6  1  0
  6  7  1  0
  6  8  2  0
M  ISO  2   1   1   7   2
M  END
>  <symbol>  (326) 
NMebAla

>  <m_abbr>  (326) 
NMebAla

>  <m_name>  (326) 
3-(methylamino)propanoic acid

>  <m_type>  (326) 
aa

>  <m_subtype>  (326) 
natural

>  <m_Rgroups>  (326) 
[H],[OH]

>  <m_chem_types>  (326) 
1:backbone_n,2:backbone_c

>  <m_activation_policy>  (326) 
canonical-sites-v1

$$$$

     RDKit          2D

 12 12  0  0  0  0  0  0  0  0999 V2000
   -3.8971    0.1250    0.0000 R   0  0  0  0  0  1  0  0  0  0  0  0
   -2.5981   -0.6250    0.0000 C   0  0  0  0  0  0  0  0  0  0  0  0
   -2.5981   -2.1250    0.0000 O   0  0  0  0  0  0  0  0  0  0  0  0
   -1.2990    0.1250    0.0000 C   0  0  0  0  0  0  0  0  0  0  0  0
   -1.2990    1.6250    0.0000 C   0  0  0  0  0  0  0  0  0  0  0  0
    0.0000    2.3750    0.0000 C   0  0  0  0  0  0  0  0  0  0  0  0
    1.2990    1.6250    0.0000 C   0  0  0  0  0  0  0  0  0  0  0  0
    1.2990    0.1250    0.0000 C   0  0  0  0  0  0  0  0  0  0  0  0
    2.5981   -0.6250    0.0000 N   0  0  0  0  0  0  0  0  0  0  0  0
    2.5981   -2.1250    0.0000 C   0  0  0  0  0  0  0  0  0  0  0  0
    3.8971    0.1250    0.0000 C   0  0  0  0  0  0  0  0  0  0  0  0
   -0.0000   -0.6250    0.0000 C   0  0  0  0  0  0  0  0  0  0  0  0
  1  2  1  0
  2  3  2  0
  2  4  1  0
  4  5  1  0
  5  6  2  0
  6  7  1  0
  7  8  2  0
  8  9  1  0
  9 10  1  0
  9 11  1  0
  8 12  1  0
 12  4  2  0
M  ISO  1   1   2
M  END
>  <symbol>  (327) 
NMe23Abz

>  <m_abbr>  (327) 
NMe23Abz

>  <m_name>  (327) 
3-(dimethylamino)benzoic acid

>  <m_type>  (327) 
cap

>  <m_subtype>  (327) 
cap

>  <m_Rgroups>  (327) 
None,[OH]

>  <m_chem_types>  (327) 
2:backbone_c

>  <m_activation_policy>  (327) 
canonical-sites-v1

$$$$

     RDKit          2D

 12 12  0  0  0  0  0  0  0  0999 V2000
    3.7500   -1.2990    0.0000 R   0  0  0  0  0  1  0  0  0  0  0  0
    3.0000    0.0000    0.0000 C   0  0  0  0  0  0  0  0  0  0  0  0
    3.7500    1.2990    0.0000 O   0  0  0  0  0  0  0  0  0  0  0  0
    1.5000   -0.0000    0.0000 C   0  0  0  0  0  0  0  0  0  0  0  0
    0.7500   -1.2990    0.0000 C   0  0  0  0  0  0  0  0  0  0  0  0
   -0.7500   -1.2990    0.0000 C   0  0  0  0  0  0  0  0  0  0  0  0
   -1.5000    0.0000    0.0000 C   0  0  0  0  0  0  0  0  0  0  0  0
   -3.0000    0.0000    0.0000 N   0  0  0  0  0  0  0  0  0  0  0  0
   -3.7500    1.2990    0.0000 C   0  0  0  0  0  0  0  0  0  0  0  0
   -3.7500   -1.2990    0.0000 C   0  0  0  0  0  0  0  0  0  0  0  0
   -0.7500    1.2990    0.0000 C   0  0  0  0  0  0  0  0  0  0  0  0
    0.7500    1.2990    0.0000 C   0  0  0  0  0  0  0  0  0  0  0  0
  1  2  1  0
  2  3  2  0
  2  4  1  0
  4  5  1  0
  5  6  2  0
  6  7  1  0
  7  8  1  0
  8  9  1  0
  8 10  1  0
  7 11  2  0
 11 12  1  0
 12  4  2  0
M  ISO  1   1   2
M  END
>  <symbol>  (328) 
NMe24Abz

>  <m_abbr>  (328) 
NMe24Abz

>  <m_name>  (328) 
4-(dimethylamino)benzoic acid

>  <m_type>  (328) 
cap

>  <m_subtype>  (328) 
cap

>  <m_Rgroups>  (328) 
None,[OH]

>  <m_chem_types>  (328) 
2:backbone_c

>  <m_activation_policy>  (328) 
canonical-sites-v1

$$$$

     RDKit          2D

 25 26  0  0  0  0  0  0  0  0999 V2000
   -7.7441   -0.6856    0.0000 R   0  0  0  0  0  1  0  0  0  0  0  0
   -6.3546   -1.2506    0.0000 N   0  0  0  0  0  0  0  0  0  0  0  0
   -6.1490   -2.7364    0.0000 R   0  0  0  0  0  1  0  0  0  0  0  0
   -5.1706   -0.3296    0.0000 C   0  0  0  0  0  0  0  0  0  0  0  0
   -3.7810   -0.8945    0.0000 C   0  0  0  0  0  0  0  0  0  0  0  0
   -2.5970    0.0264    0.0000 N   0  0  0  0  0  0  0  0  0  0  0  0
   -2.8026    1.5122    0.0000 C   0  0  0  0  0  0  0  0  0  0  0  0
   -4.1921    2.0772    0.0000 C   0  0  0  0  0  0  0  0  0  0  0  0
   -4.3977    3.5630    0.0000 R   0  0  0  0  0  1  0  0  0  0  0  0
   -5.3761    1.1562    0.0000 O   0  0  0  0  0  0  0  0  0  0  0  0
   -1.2075   -0.5385    0.0000 C   0  0  0  0  0  0  0  0  0  0  0  0
   -1.0019   -2.0244    0.0000 O   0  0  0  0  0  0  0  0  0  0  0  0
   -0.0234    0.3824    0.0000 C   0  0  0  0  0  0  0  0  0  0  0  0
    1.3661   -0.1825    0.0000 N   0  0  0  0  0  0  0  0  0  0  0  0
    1.7259   -1.6387    0.0000 C   0  0  0  0  0  0  0  0  0  0  0  0
    3.2220   -1.7466    0.0000 N   0  0  0  0  0  0  0  0  0  0  0  0
    3.7869   -0.3570    0.0000 C   0  0  0  0  0  0  0  0  0  0  0  0
    5.1975    0.1530    0.0000 C   0  0  0  0  0  0  0  0  0  0  0  0
    6.3445   -0.8137    0.0000 N   0  0  0  0  0  0  0  0  0  0  0  0
    7.7551   -0.3037    0.0000 R   0  0  0  0  0  1  0  0  0  0  0  0
    6.0808   -2.2903    0.0000 R   0  0  0  0  0  1  0  0  0  0  0  0
    5.4612    1.6296    0.0000 N   0  0  0  0  0  0  0  0  0  0  0  0
    4.3142    2.5963    0.0000 C   0  0  0  0  0  0  0  0  0  0  0  0
    2.9036    2.0863    0.0000 N   0  0  0  0  0  0  0  0  0  0  0  0
    2.6399    0.6096    0.0000 C   0  0  0  0  0  0  0  0  0  0  0  0
  1  2  1  0
  2  3  1  0
  2  4  1  0
  4  5  1  0
  5  6  1  0
  6  7  1  0
  7  8  1  0
  8  9  1  0
  8 10  2  0
  6 11  1  0
 11 12  2  0
 11 13  1  0
 13 14  1  0
 14 15  1  0
 15 16  2  0
 16 17  1  0
 17 18  2  0
 18 19  1  0
 19 20  1  0
 19 21  1  0
 18 22  1  0
 22 23  2  0
 23 24  1  0
 24 25  2  0
 25 14  1  0
 25 17  1  0
M  ISO  5   1   1   3   3   9   2  20   4  21   5
M  END
>  <symbol>  (329) 
pnA

>  <m_abbr>  (329) 
pnA

>  <m_name>  (329) 
PNA Adenine

>  <m_type>  (329) 
aa

>  <m_subtype>  (329) 
natural

>  <m_Rgroups>  (329) 
[H],[OH],[H],[H],[H]

>  <m_chem_types>  (329) 
1:backbone_n,2:backbone_c,3:backbone_n_mod,4:amine_primary,5:amine_primary

>  <m_activation_policy>  (329) 
canonical-sites-v1

$$$$

     RDKit          2D

 23 23  0  0  0  0  0  0  0  0999 V2000
   -7.0428    1.2119    0.0000 R   0  0  0  0  0  1  0  0  0  0  0  0
   -5.5939    1.6002    0.0000 N   0  0  0  0  0  0  0  0  0  0  0  0
   -5.2057    3.0490    0.0000 R   0  0  0  0  0  1  0  0  0  0  0  0
   -4.5332    0.5395    0.0000 C   0  0  0  0  0  0  0  0  0  0  0  0
   -3.0843    0.9277    0.0000 C   0  0  0  0  0  0  0  0  0  0  0  0
   -2.0237   -0.1329    0.0000 N   0  0  0  0  0  0  0  0  0  0  0  0
   -2.4119   -1.5818    0.0000 C   0  0  0  0  0  0  0  0  0  0  0  0
   -3.8608   -1.9701    0.0000 C   0  0  0  0  0  0  0  0  0  0  0  0
   -4.2490   -3.4189    0.0000 R   0  0  0  0  0  1  0  0  0  0  0  0
   -4.9215   -0.9094    0.0000 O   0  0  0  0  0  0  0  0  0  0  0  0
   -0.5748    0.2553    0.0000 C   0  0  0  0  0  0  0  0  0  0  0  0
   -0.1866    1.7042    0.0000 O   0  0  0  0  0  0  0  0  0  0  0  0
    0.4859   -0.8054    0.0000 C   0  0  0  0  0  0  0  0  0  0  0  0
    1.9348   -0.4171    0.0000 N   0  0  0  0  0  0  0  0  0  0  0  0
    2.3230    1.0317    0.0000 C   0  0  0  0  0  0  0  0  0  0  0  0
    3.7719    1.4200    0.0000 C   0  0  0  0  0  0  0  0  0  0  0  0
    4.8325    0.3593    0.0000 C   0  0  0  0  0  0  0  0  0  0  0  0
    6.2814    0.7475    0.0000 N   0  0  0  0  0  0  0  0  0  0  0  0
    7.3421   -0.3131    0.0000 R   0  0  0  0  0  1  0  0  0  0  0  0
    6.6697    2.1964    0.0000 R   0  0  0  0  0  1  0  0  0  0  0  0
    4.4443   -1.0896    0.0000 N   0  0  0  0  0  0  0  0  0  0  0  0
    2.9954   -1.4778    0.0000 C   0  0  0  0  0  0  0  0  0  0  0  0
    2.6072   -2.9267    0.0000 O   0  0  0  0  0  0  0  0  0  0  0  0
  1  2  1  0
  2  3  1  0
  2  4  1  0
  4  5  1  0
  5  6  1  0
  6  7  1  0
  7  8  1  0
  8  9  1  0
  8 10  2  0
  6 11  1  0
 11 12  2  0
 11 13  1  0
 13 14  1  0
 14 15  1  0
 15 16  2  0
 16 17  1  0
 17 18  1  0
 18 19  1  0
 18 20  1  0
 17 21  2  0
 21 22  1  0
 22 23  2  0
 22 14  1  0
M  ISO  5   1   1   3   3   9   2  19   4  20   5
M  END
>  <symbol>  (330) 
pnC

>  <m_abbr>  (330) 
pnC

>  <m_name>  (330) 
PNA Cytosine

>  <m_type>  (330) 
aa

>  <m_subtype>  (330) 
natural

>  <m_Rgroups>  (330) 
[H],[OH],[H],[H],[H]

>  <m_chem_types>  (330) 
1:backbone_n,2:backbone_c,3:backbone_n_mod,4:amine_primary,5:amine_primary

>  <m_activation_policy>  (330) 
canonical-sites-v1

$$$$

     RDKit          2D

 27 28  0  0  0  0  0  0  0  0999 V2000
    8.1171   -0.2434    0.0000 R   0  0  0  0  0  1  0  0  0  0  0  0
    6.8668    0.5854    0.0000 N   0  0  0  0  0  0  0  0  0  0  0  0
    6.9595    2.0826    0.0000 R   0  0  0  0  0  1  0  0  0  0  0  0
    5.5240   -0.0829    0.0000 C   0  0  0  0  0  0  0  0  0  0  0  0
    4.2737    0.7459    0.0000 C   0  0  0  0  0  0  0  0  0  0  0  0
    2.9308    0.0775    0.0000 N   0  0  0  0  0  0  0  0  0  0  0  0
    2.8382   -1.4196    0.0000 C   0  0  0  0  0  0  0  0  0  0  0  0
    4.0884   -2.2484    0.0000 C   0  0  0  0  0  0  0  0  0  0  0  0
    3.9958   -3.7455    0.0000 R   0  0  0  0  0  1  0  0  0  0  0  0
    5.4313   -1.5800    0.0000 O   0  0  0  0  0  0  0  0  0  0  0  0
    1.6806    0.9063    0.0000 C   0  0  0  0  0  0  0  0  0  0  0  0
    1.7732    2.4035    0.0000 O   0  0  0  0  0  0  0  0  0  0  0  0
    0.3377    0.2380    0.0000 C   0  0  0  0  0  0  0  0  0  0  0  0
   -0.9125    1.0668    0.0000 N   0  0  0  0  0  0  0  0  0  0  0  0
   -0.9769    2.5654    0.0000 C   0  0  0  0  0  0  0  0  0  0  0  0
   -2.4220    2.9673    0.0000 N   0  0  0  0  0  0  0  0  0  0  0  0
   -3.2508    1.7170    0.0000 C   0  0  0  0  0  0  0  0  0  0  0  0
   -4.7345    1.4964    0.0000 C   0  0  0  0  0  0  0  0  0  0  0  0
   -5.6675    2.6710    0.0000 O   0  0  0  0  0  0  0  0  0  0  0  0
   -5.2853    0.1011    0.0000 N   0  0  0  0  0  0  0  0  0  0  0  0
   -6.7689   -0.1195    0.0000 R   0  0  0  0  0  1  0  0  0  0  0  0
   -4.3523   -1.0734    0.0000 C   0  0  0  0  0  0  0  0  0  0  0  0
   -4.9031   -2.4687    0.0000 N   0  0  0  0  0  0  0  0  0  0  0  0
   -6.3867   -2.6893    0.0000 R   0  0  0  0  0  1  0  0  0  0  0  0
   -3.9701   -3.6432    0.0000 R   0  0  0  0  0  1  0  0  0  0  0  0
   -2.8686   -0.8528    0.0000 N   0  0  0  0  0  0  0  0  0  0  0  0
   -2.3179    0.5425    0.0000 C   0  0  0  0  0  0  0  0  0  0  0  0
  1  2  1  0
  2  3  1  0
  2  4  1  0
  4  5  1  0
  5  6  1  0
  6  7  1  0
  7  8  1  0
  8  9  1  0
  8 10  2  0
  6 11  1  0
 11 12  2  0
 11 13  1  0
 13 14  1  0
 14 15  4  0
 15 16  4  0
 16 17  4  0
 17 18  4  0
 18 19  2  0
 18 20  4  0
 20 21  1  0
 20 22  4  0
 22 23  1  0
 23 24  1  0
 23 25  1  0
 22 26  4  0
 26 27  4  0
 27 14  4  0
 27 17  4  0
M  ISO  6   1   1   3   3   9   2  21   6  24   4  25   5
M  END
>  <symbol>
pnG

>  <m_abbr>
pnG

>  <m_name>
PNA Guanine

>  <m_type>
aa

>  <m_subtype>
natural

>  <m_Rgroups>
[H],[OH],[H],[H],[H],[H]

>  <m_chem_types>
1:backbone_n,2:backbone_c,3:backbone_n_mod,4:amine_primary,5:amine_primary,6:aromatic_nh

>  <m_activation_policy>
canonical-sites-v1

$$$$

     RDKit          2D

 23 23  0  0  0  0  0  0  0  0999 V2000
   -6.8991    0.9852    0.0000 R   0  0  0  0  0  1  0  0  0  0  0  0
   -5.4671    1.4315    0.0000 N   0  0  0  0  0  0  0  0  0  0  0  0
   -5.1376    2.8949    0.0000 R   0  0  0  0  0  1  0  0  0  0  0  0
   -4.3645    0.4145    0.0000 C   0  0  0  0  0  0  0  0  0  0  0  0
   -2.9325    0.8608    0.0000 C   0  0  0  0  0  0  0  0  0  0  0  0
   -1.8299   -0.1562    0.0000 N   0  0  0  0  0  0  0  0  0  0  0  0
   -2.1594   -1.6196    0.0000 C   0  0  0  0  0  0  0  0  0  0  0  0
   -3.5914   -2.0659    0.0000 C   0  0  0  0  0  0  0  0  0  0  0  0
   -3.9209   -3.5293    0.0000 R   0  0  0  0  0  1  0  0  0  0  0  0
   -4.6940   -1.0489    0.0000 O   0  0  0  0  0  0  0  0  0  0  0  0
   -0.3978    0.2901    0.0000 C   0  0  0  0  0  0  0  0  0  0  0  0
   -0.0683    1.7535    0.0000 O   0  0  0  0  0  0  0  0  0  0  0  0
    0.7047   -0.7269    0.0000 C   0  0  0  0  0  0  0  0  0  0  0  0
    2.1368   -0.2806    0.0000 N   0  0  0  0  0  0  0  0  0  0  0  0
    2.4663    1.1828    0.0000 C   0  0  0  0  0  0  0  0  0  0  0  0
    3.8983    1.6291    0.0000 C   0  0  0  0  0  0  0  0  0  0  0  0
    4.2278    3.0925    0.0000 C   0  0  0  0  0  0  0  0  0  0  0  0
    5.0009    0.6121    0.0000 C   0  0  0  0  0  0  0  0  0  0  0  0
    6.4330    1.0585    0.0000 O   0  0  0  0  0  0  0  0  0  0  0  0
    4.6714   -0.8512    0.0000 N   0  0  0  0  0  0  0  0  0  0  0  0
    5.7740   -1.8683    0.0000 R   0  0  0  0  0  1  0  0  0  0  0  0
    3.2394   -1.2976    0.0000 C   0  0  0  0  0  0  0  0  0  0  0  0
    2.9099   -2.7610    0.0000 O   0  0  0  0  0  0  0  0  0  0  0  0
  1  2  1  0
  2  3  1  0
  2  4  1  0
  4  5  1  0
  5  6  1  0
  6  7  1  0
  7  8  1  0
  8  9  1  0
  8 10  2  0
  6 11  1  0
 11 12  2  0
 11 13  1  0
 13 14  1  0
 14 15  4  0
 15 16  4  0
 16 17  1  0
 16 18  4  0
 18 19  2  0
 18 20  4  0
 20 21  1  0
 20 22  4  0
 22 23  2  0
 22 14  4  0
M  ISO  4   1   1   3   3   9   2  21   4
M  END
>  <symbol>
pnT

>  <m_abbr>
pnT

>  <m_name>
PNA Thymine

>  <m_type>
aa

>  <m_subtype>
natural

>  <m_Rgroups>
[H],[OH],[H],[H]

>  <m_chem_types>
1:backbone_n,2:backbone_c,3:backbone_n_mod,4:aromatic_nh

>  <m_activation_policy>
canonical-sites-v1

$$$$

     RDKit          2D

 22 24  0  0  0  0  0  0  0  0999 V2000
   -7.4095    1.3138    0.0000 R   0  0  0  0  0  1  0  0  0  0  0  0
   -5.9919    0.8234    0.0000 N   0  0  0  0  0  0  0  0  0  0  0  0
   -4.8584    1.8058    0.0000 C   0  0  0  0  0  0  0  0  0  0  0  0
   -3.4409    1.3154    0.0000 C   0  0  0  0  0  0  0  0  0  0  0  0
   -3.1568   -0.1575    0.0000 N   0  0  0  0  0  0  0  0  0  0  0  0
   -1.7392   -0.6479    0.0000 C   0  0  0  0  0  0  0  0  0  0  0  0
   -1.4552   -2.1208    0.0000 C   0  0  0  0  0  0  0  0  0  0  0  0
   -0.0376   -2.6112    0.0000 C   0  0  0  0  0  0  0  0  0  0  0  0
    1.0959   -1.6288    0.0000 C   0  0  0  0  0  0  0  0  0  0  0  0
    2.5134   -2.1192    0.0000 C   0  0  0  0  0  0  0  0  0  0  0  0
    3.6470   -1.1368    0.0000 C   0  0  0  0  0  0  0  0  0  0  0  0
    3.3629    0.3361    0.0000 N   0  0  0  0  0  0  0  0  0  0  0  0
    4.4964    1.3185    0.0000 C   0  0  0  0  0  0  0  0  0  0  0  0
    5.9140    0.8281    0.0000 C   0  0  0  0  0  0  0  0  0  0  0  0
    7.0475    1.8105    0.0000 R   0  0  0  0  0  1  0  0  0  0  0  0
    6.1980   -0.6447    0.0000 O   0  0  0  0  0  0  0  0  0  0  0  0
    1.9453    0.8265    0.0000 C   0  0  0  0  0  0  0  0  0  0  0  0
    1.6613    2.2994    0.0000 O   0  0  0  0  0  0  0  0  0  0  0  0
    0.8118   -0.1559    0.0000 C   0  0  0  0  0  0  0  0  0  0  0  0
   -0.6057    0.3345    0.0000 C   0  0  0  0  0  0  0  0  0  0  0  0
   -4.2903   -1.1399    0.0000 C   0  0  0  0  0  0  0  0  0  0  0  0
   -5.7079   -0.6495    0.0000 C   0  0  0  0  0  0  0  0  0  0  0  0
  1  2  1  0
  2  3  1  0
  3  4  1  0
  4  5  1  0
  5  6  1  0
  6  7  1  0
  7  8  2  0
  8  9  1  0
  9 10  1  0
 10 11  2  0
 11 12  1  0
 12 13  1  0
 13 14  1  0
 14 15  1  0
 14 16  2  0
 12 17  1  0
 17 18  2  0
 17 19  1  0
 19 20  1  0
  5 21  1  0
 21 22  1  0
 22  2  1  0
 20  6  2  0
 19  9  2  0
M  ISO  2   1   1  15   2
M  END
>  <symbol>  (333) 
Pqa

>  <m_abbr>  (333) 
Pqa

>  <m_name>  (333) 
2-[1-oxo-7-(piperazin-1-yl)-1,2-dihydroisoquinolin-2-yl]acetic acid

>  <m_type>  (333) 
aa

>  <m_subtype>  (333) 
natural

>  <m_Rgroups>  (333) 
[H],[OH]

>  <m_chem_types>  (333) 
1:backbone_n,2:backbone_c

>  <m_activation_policy>  (333) 
canonical-sites-v1

$$$$

     RDKit          2D

 12 11  0  0  0  0  0  0  0  0999 V2000
   -1.6546    2.1983    0.0000 R   0  0  0  0  0  1  0  0  0  0  0  0
   -1.8829    0.7157    0.0000 N   0  0  0  0  0  0  0  0  0  0  0  0
   -3.2810    0.1722    0.0000 R   0  0  0  0  0  1  0  0  0  0  0  0
   -0.7132   -0.2233    0.0000 C   0  0  0  0  0  0  0  0  0  0  0  0
   -1.6522   -1.3930    0.0000 C   0  0  0  0  0  0  0  0  0  0  0  0
    0.2258    0.9465    0.0000 C   0  0  0  0  0  0  0  0  0  0  0  0
    1.7083    0.7182    0.0000 C   0  0  0  0  0  0  0  0  0  0  0  0
    2.2833   -0.3522    0.0000 C   0  0  0  0  0  0  0  0  0  0  0  0
    2.6473    1.8879    0.0000 C   0  0  0  0  0  0  0  0  0  0  0  0
    0.4566   -1.1623    0.0000 C   0  0  0  0  0  0  0  0  0  0  0  0
    0.2282   -2.6448    0.0000 R   0  0  0  0  0  1  0  0  0  0  0  0
    1.6342   -0.8633    0.0000 O   0  0  0  0  0  0  0  0  0  0  0  0
  1  2  1  0
  2  3  1  0
  2  4  1  0
  4  5  1  0
  4  6  1  0
  6  7  1  0
  7  8  1  0
  7  9  1  0
  4 10  1  0
 10 11  1  0
 10 12  2  0
M  ISO  3   1   1   3   3  11   2
M  END
>  <symbol>  (334) 
aMeLeu

>  <m_abbr>  (334) 
aMeLeu

>  <m_name>  (334) 
alpha-methyl-L-leucine

>  <m_type>  (334) 
aa

>  <m_subtype>  (334) 
natural

>  <m_Rgroups>  (334) 
[H],[OH],[H]

>  <m_chem_types>  (334) 
1:backbone_n,2:backbone_c,3:backbone_n_mod

>  <m_activation_policy>  (334) 
canonical-sites-v1

$$$$

     RDKit          2D

 13 12  0  0  0  0  0  0  0  0999 V2000
   -6.4952    0.6346    0.0000 R   0  0  0  0  0  1  0  0  0  0  0  0
   -5.1962   -0.1154    0.0000 N   0  0  0  0  0  0  0  0  0  0  0  0
   -5.1962   -1.6154    0.0000 R   0  0  0  0  0  1  0  0  0  0  0  0
   -3.8971    0.6346    0.0000 C   0  0  0  0  0  0  0  0  0  0  0  0
   -2.5981   -0.1154    0.0000 C   0  0  0  0  0  0  0  0  0  0  0  0
   -1.2990    0.6346    0.0000 O   0  0  0  0  0  0  0  0  0  0  0  0
   -0.0000   -0.1154    0.0000 C   0  0  0  0  0  0  0  0  0  0  0  0
    1.2990    0.6346    0.0000 C   0  0  0  0  0  0  0  0  0  0  0  0
    2.5981   -0.1154    0.0000 O   0  0  0  0  0  0  0  0  0  0  0  0
    3.8971    0.6346    0.0000 C   0  0  0  0  0  0  0  0  0  0  0  0
    5.1962   -0.1154    0.0000 C   0  0  0  0  0  0  0  0  0  0  0  0
    6.4952    0.6346    0.0000 R   0  0  0  0  0  1  0  0  0  0  0  0
    5.1962   -1.6154    0.0000 O   0  0  0  0  0  0  0  0  0  0  0  0
  1  2  1  0
  2  3  1  0
  2  4  1  0
  4  5  1  0
  5  6  1  0
  6  7  1  0
  7  8  1  0
  8  9  1  0
  9 10  1  0
 10 11  1  0
 11 12  1  0
 11 13  2  0
M  ISO  3   1   1   3   3  12   2
M  END
>  <symbol>  (335) 
AEEA

>  <m_abbr>  (335) 
AEEA

>  <m_name>  (335) 
8-amino-3,6-dioxaoctanoic acid

>  <m_type>  (335) 
aa

>  <m_subtype>  (335) 
natural

>  <m_Rgroups>  (335) 
[H],[OH],[H]

>  <m_chem_types>  (335) 
1:backbone_n,2:backbone_c,3:backbone_n_mod

>  <m_activation_policy>  (335) 
canonical-sites-v1

$$$$

     RDKit          2D

 22 21  0  0  0  0  0  0  0  0999 V2000
   12.3263    0.7070    0.0000 R   0  0  0  0  0  1  0  0  0  0  0  0
   11.0479   -0.0777    0.0000 C   0  0  0  0  0  0  0  0  0  0  0  0
   11.0883   -1.5772    0.0000 O   0  0  0  0  0  0  0  0  0  0  0  0
    9.7292    0.6370    0.0000 C   0  0  0  0  0  0  0  0  0  0  0  0
    8.4508   -0.1476    0.0000 C   0  0  0  0  0  0  0  0  0  0  0  0
    7.1320    0.5671    0.0000 C   0  0  0  0  0  0  0  0  0  0  0  0
    5.8536   -0.2176    0.0000 C   0  0  0  0  0  0  0  0  0  0  0  0
    4.5349    0.4972    0.0000 C   0  0  0  0  0  0  0  0  0  0  0  0
    3.2565   -0.2875    0.0000 C   0  0  0  0  0  0  0  0  0  0  0  0
    1.9378    0.4273    0.0000 C   0  0  0  0  0  0  0  0  0  0  0  0
    0.6594   -0.3574    0.0000 C   0  0  0  0  0  0  0  0  0  0  0  0
   -0.6594    0.3574    0.0000 C   0  0  0  0  0  0  0  0  0  0  0  0
   -1.9378   -0.4273    0.0000 C   0  0  0  0  0  0  0  0  0  0  0  0
   -3.2565    0.2875    0.0000 C   0  0  0  0  0  0  0  0  0  0  0  0
   -4.5349   -0.4972    0.0000 C   0  0  0  0  0  0  0  0  0  0  0  0
   -5.8536    0.2176    0.0000 C   0  0  0  0  0  0  0  0  0  0  0  0
   -7.1320   -0.5671    0.0000 C   0  0  0  0  0  0  0  0  0  0  0  0
   -8.4508    0.1476    0.0000 C   0  0  0  0  0  0  0  0  0  0  0  0
   -9.7292   -0.6370    0.0000 C   0  0  0  0  0  0  0  0  0  0  0  0
  -11.0479    0.0777    0.0000 C   0  0  0  0  0  0  0  0  0  0  0  0
  -12.3263   -0.7070    0.0000 R   0  0  0  0  0  1  0  0  0  0  0  0
  -11.0883    1.5772    0.0000 O   0  0  0  0  0  0  0  0  0  0  0  0
  1  2  1  0
  2  3  2  0
  2  4  1  0
  4  5  1  0
  5  6  1  0
  6  7  1  0
  7  8  1  0
  8  9  1  0
  9 10  1  0
 10 11  1  0
 11 12  1  0
 12 13  1  0
 13 14  1  0
 14 15  1  0
 15 16  1  0
 16 17  1  0
 17 18  1  0
 18 19  1  0
 19 20  1  0
 20 21  1  0
 20 22  2  0
M  ISO  2   1   2  21   4
M  END
>  <symbol>  (336) 
C18FA

>  <m_abbr>  (336) 
C18FA

>  <m_name>  (336) 
octadecanedioic acid

>  <m_type>  (336) 
cap

>  <m_subtype>  (336) 
cap

>  <m_Rgroups>  (336) 
None,[OH],None,[OH]

>  <m_chem_types>  (336) 
2:backbone_c,4:carboxyl

>  <m_activation_policy>  (336) 
canonical-sites-v1

$$$$

     RDKit          2D

 24 23  0  0  0  0  0  0  0  0999 V2000
   13.6278    0.6867    0.0000 R   0  0  0  0  0  1  0  0  0  0  0  0
   12.3462   -0.0928    0.0000 C   0  0  0  0  0  0  0  0  0  0  0  0
   12.3805   -1.5924    0.0000 O   0  0  0  0  0  0  0  0  0  0  0  0
   11.0304    0.6273    0.0000 C   0  0  0  0  0  0  0  0  0  0  0  0
    9.7488   -0.1522    0.0000 C   0  0  0  0  0  0  0  0  0  0  0  0
    8.4330    0.5679    0.0000 C   0  0  0  0  0  0  0  0  0  0  0  0
    7.1514   -0.2116    0.0000 C   0  0  0  0  0  0  0  0  0  0  0  0
    5.8356    0.5085    0.0000 C   0  0  0  0  0  0  0  0  0  0  0  0
    4.5540   -0.2710    0.0000 C   0  0  0  0  0  0  0  0  0  0  0  0
    3.2382    0.4491    0.0000 C   0  0  0  0  0  0  0  0  0  0  0  0
    1.9566   -0.3304    0.0000 C   0  0  0  0  0  0  0  0  0  0  0  0
    0.6408    0.3897    0.0000 C   0  0  0  0  0  0  0  0  0  0  0  0
   -0.6408   -0.3897    0.0000 C   0  0  0  0  0  0  0  0  0  0  0  0
   -1.9566    0.3304    0.0000 C   0  0  0  0  0  0  0  0  0  0  0  0
   -3.2382   -0.4491    0.0000 C   0  0  0  0  0  0  0  0  0  0  0  0
   -4.5540    0.2710    0.0000 C   0  0  0  0  0  0  0  0  0  0  0  0
   -5.8356   -0.5085    0.0000 C   0  0  0  0  0  0  0  0  0  0  0  0
   -7.1514    0.2116    0.0000 C   0  0  0  0  0  0  0  0  0  0  0  0
   -8.4330   -0.5679    0.0000 C   0  0  0  0  0  0  0  0  0  0  0  0
   -9.7488    0.1522    0.0000 C   0  0  0  0  0  0  0  0  0  0  0  0
  -11.0304   -0.6273    0.0000 C   0  0  0  0  0  0  0  0  0  0  0  0
  -12.3462    0.0928    0.0000 C   0  0  0  0  0  0  0  0  0  0  0  0
  -13.6278   -0.6867    0.0000 R   0  0  0  0  0  1  0  0  0  0  0  0
  -12.3805    1.5924    0.0000 O   0  0  0  0  0  0  0  0  0  0  0  0
  1  2  1  0
  2  3  2  0
  2  4  1  0
  4  5  1  0
  5  6  1  0
  6  7  1  0
  7  8  1  0
  8  9  1  0
  9 10  1  0
 10 11  1  0
 11 12  1  0
 12 13  1  0
 13 14  1  0
 14 15  1  0
 15 16  1  0
 16 17  1  0
 17 18  1  0
 18 19  1  0
 19 20  1  0
 20 21  1  0
 21 22  1  0
 22 23  1  0
 22 24  2  0
M  ISO  2   1   2  23   4
M  END
>  <symbol>  (337) 
C20FA

>  <m_abbr>  (337) 
C20FA

>  <m_name>  (337) 
eicosanedioic acid

>  <m_type>  (337) 
cap

>  <m_subtype>  (337) 
cap

>  <m_Rgroups>  (337) 
None,[OH],None,[OH]

>  <m_chem_types>  (337) 
2:backbone_c,4:carboxyl

>  <m_activation_policy>  (337) 
canonical-sites-v1

$$$$

     RDKit          2D

 14 13  0  0  0  0  0  0  0  0999 V2000
   -1.8823    2.4488    0.0000 R   0  0  0  0  0  1  0  0  0  0  0  0
   -2.5206    1.0914    0.0000 N   0  0  0  0  0  0  0  0  0  0  0  0
   -4.0153    0.9656    0.0000 R   0  0  0  0  0  1  0  0  0  0  0  0
   -1.6643   -0.1401    0.0000 C   0  0  0  0  0  0  0  0  0  0  0  0
   -2.8958   -0.9964    0.0000 C   0  0  0  0  0  0  0  0  0  0  0  0
   -0.4328    0.7162    0.0000 C   0  0  0  0  0  0  0  0  0  0  0  0
    0.9246    0.0778    0.0000 C   0  0  0  0  0  0  0  0  0  0  0  0
    2.1562    0.9342    0.0000 C   0  0  0  0  0  0  0  0  0  0  0  0
    3.5135    0.2958    0.0000 C   0  0  0  0  0  0  0  0  0  0  0  0
    4.7451    1.1521    0.0000 R   0  0  0  0  0  1  0  0  0  0  0  0
    3.6394   -1.1989    0.0000 C   0  0  0  0  0  0  0  0  0  0  0  0
   -0.8080   -1.3717    0.0000 C   0  0  0  0  0  0  0  0  0  0  0  0
    0.6867   -1.2458    0.0000 R   0  0  0  0  0  1  0  0  0  0  0  0
   -1.4464   -2.7290    0.0000 O   0  0  0  0  0  0  0  0  0  0  0  0
  1  2  1  0
  2  3  1  0
  2  4  1  0
  4  5  1  6
  4  6  1  0
  6  7  1  0
  7  8  1  0
  8  9  1  0
  9 10  1  0
  9 11  2  0
  4 12  1  0
 12 13  1  0
 12 14  2  0
M  ISO  4   1   1   3   3  10   4  13   2
M  END
>  <symbol>  (338) 
S5

>  <m_abbr>  (338) 
S5

>  <m_name>  (338) 
(S)-alpha-methyl-alpha-(4-pentenyl)glycine

>  <m_type>  (338) 
aa

>  <m_subtype>  (338) 
natural

>  <m_Rgroups>  (338) 
[H],[OH],[H],[H]

>  <m_chem_types>  (338) 
1:backbone_n,2:backbone_c,3:backbone_n_mod,4:terminal_alkene

>  <m_activation_policy>  (338) 
canonical-sites-v1

$$$$

     RDKit          2D

 17 16  0  0  0  0  0  0  0  0999 V2000
   -3.0590    2.5273    0.0000 R   0  0  0  0  0  1  0  0  0  0  0  0
   -3.8879    1.2771    0.0000 N   0  0  0  0  0  0  0  0  0  0  0  0
   -5.3850    1.3698    0.0000 R   0  0  0  0  0  1  0  0  0  0  0  0
   -3.2196   -0.0658    0.0000 C   0  0  0  0  0  0  0  0  0  0  0  0
   -4.5625   -0.7341    0.0000 C   0  0  0  0  0  0  0  0  0  0  0  0
   -1.8767    0.6024    0.0000 C   0  0  0  0  0  0  0  0  0  0  0  0
   -0.6265   -0.2264    0.0000 C   0  0  0  0  0  0  0  0  0  0  0  0
    0.7164    0.4419    0.0000 C   0  0  0  0  0  0  0  0  0  0  0  0
    1.9666   -0.3870    0.0000 C   0  0  0  0  0  0  0  0  0  0  0  0
    3.3095    0.2813    0.0000 C   0  0  0  0  0  0  0  0  0  0  0  0
    4.5597   -0.5476    0.0000 C   0  0  0  0  0  0  0  0  0  0  0  0
    5.9026    0.1207    0.0000 C   0  0  0  0  0  0  0  0  0  0  0  0
    7.1528   -0.7082    0.0000 R   0  0  0  0  0  1  0  0  0  0  0  0
    5.9953    1.6178    0.0000 C   0  0  0  0  0  0  0  0  0  0  0  0
   -2.5513   -1.4087    0.0000 C   0  0  0  0  0  0  0  0  0  0  0  0
   -1.0542   -1.5015    0.0000 R   0  0  0  0  0  1  0  0  0  0  0  0
   -3.3802   -2.6589    0.0000 O   0  0  0  0  0  0  0  0  0  0  0  0
  1  2  1  0
  2  3  1  0
  2  4  1  0
  4  5  1  1
  4  6  1  0
  6  7  1  0
  7  8  1  0
  8  9  1  0
  9 10  1  0
 10 11  1  0
 11 12  1  0
 12 13  1  0
 12 14  2  0
  4 15  1  0
 15 16  1  0
 15 17  2  0
M  ISO  4   1   1   3   3  13   4  16   2
M  END
>  <symbol>  (339) 
R8

>  <m_abbr>  (339) 
R8

>  <m_name>  (339) 
(R)-alpha-methyl-alpha-(7-octenyl)glycine

>  <m_type>  (339) 
aa

>  <m_subtype>  (339) 
natural

>  <m_Rgroups>  (339) 
[H],[OH],[H],[H]

>  <m_chem_types>  (339) 
1:backbone_n,2:backbone_c,3:backbone_n_mod,4:terminal_alkene

>  <m_activation_policy>  (339) 
canonical-sites-v1

$$$$

     RDKit          2D

 15 14  0  0  0  0  0  0  0  0999 V2000
   -4.8610    0.3747    0.0000 R   0  0  0  0  0  1  0  0  0  0  0  0
   -3.7169   -0.5953    0.0000 N   0  0  0  0  0  0  0  0  0  0  0  0
   -3.9850   -2.0712    0.0000 R   0  0  0  0  0  1  0  0  0  0  0  0
   -2.3048   -0.0896    0.0000 C   0  0  0  0  0  0  0  0  0  0  0  0
   -1.1607   -1.0596    0.0000 C   0  0  0  0  0  0  0  0  0  0  0  0
    0.2515   -0.5539    0.0000 C   0  0  0  0  0  0  0  0  0  0  0  0
    1.3956   -1.5239    0.0000 C   0  0  0  0  0  0  0  0  0  0  0  0
    2.8077   -1.0181    0.0000 C   0  0  0  0  0  0  0  0  0  0  0  0
    3.9518   -1.9882    0.0000 R   0  0  0  0  0  1  0  0  0  0  0  0
    3.0758    0.4577    0.0000 N   0  0  0  0  0  0  0  0  0  0  0  0
    4.4879    0.9635    0.0000 N   0  0  0  0  0  0  0  0  0  0  0  0
    5.9001    1.4693    0.0000 N   0  0  0  0  0  0  0  0  0  0  0  0
   -2.0367    1.3863    0.0000 C   0  0  0  0  0  0  0  0  0  0  0  0
   -0.6246    1.8921    0.0000 R   0  0  0  0  0  1  0  0  0  0  0  0
   -3.1808    2.3564    0.0000 O   0  0  0  0  0  0  0  0  0  0  0  0
  1  2  1  0
  2  3  1  0
  2  4  1  0
  4  5  1  6
  5  6  1  0
  6  7  1  0
  7  8  1  0
  8  9  1  0
  8 10  1  0
 10 11  2  0
 11 12  2  0
  4 13  1  0
 13 14  1  0
 13 15  2  0
M  CHG  2  11   1  12  -1
M  ISO  4   1   1   3   3   9   4  14   2
M  END
>  <symbol>  (340) 
AzK

>  <m_abbr>  (340) 
AzK

>  <m_name>  (340) 
L-epsilon-azidolysine

>  <m_type>  (340) 
aa

>  <m_subtype>  (340) 
natural

>  <m_Rgroups>  (340) 
[H],[OH],[H],[H]

>  <m_chem_types>  (340) 
1:backbone_n,2:backbone_c,3:backbone_n_mod,4:azide_alpha_c

>  <m_activation_policy>  (340) 
canonical-sites-v1

$$$$

     RDKit          2D

 13 12  0  0  0  0  0  0  0  0999 V2000
   -3.7540   -0.5823    0.0000 R   0  0  0  0  0  1  0  0  0  0  0  0
   -2.3396   -1.0816    0.0000 N   0  0  0  0  0  0  0  0  0  0  0  0
   -2.0647   -2.5562    0.0000 R   0  0  0  0  0  1  0  0  0  0  0  0
   -1.2000   -0.1063    0.0000 C   0  0  0  0  0  0  0  0  0  0  0  0
    0.2145   -0.6056    0.0000 C   0  0  0  0  0  0  0  0  0  0  0  0
    1.3541    0.3698    0.0000 O   0  0  0  0  0  0  0  0  0  0  0  0
    2.7686   -0.1295    0.0000 P   0  0  0  0  0  0  0  0  0  0  0  0
    3.2679    1.2850    0.0000 R   0  0  0  0  0  1  0  0  0  0  0  0
    2.2693   -1.5440    0.0000 R   0  0  0  0  0  1  0  0  0  0  0  0
    4.1831   -0.6288    0.0000 O   0  0  0  0  0  0  0  0  0  0  0  0
   -1.4748    1.3683    0.0000 C   0  0  0  0  0  0  0  0  0  0  0  0
   -0.3352    2.3436    0.0000 R   0  0  0  0  0  1  0  0  0  0  0  0
   -2.8893    1.8676    0.0000 O   0  0  0  0  0  0  0  0  0  0  0  0
  1  2  1  0
  2  3  1  0
  2  4  1  0
  4  5  1  6
  5  6  1  0
  6  7  1  0
  7  8  1  0
  7  9  1  0
  7 10  2  0
  4 11  1  0
 11 12  1  0
 11 13  2  0
M  ISO  5   1   1   3   3   8   4   9   5  12   2
M  END
>  <symbol>  (1)
pSer

>  <m_abbr>  (1)
pSer

>  <m_name>  (1)
O-phosphoserine

>  <m_type>  (1)
aa

>  <m_subtype>  (1)
natural

>  <m_Rgroups>  (1)
[H],[OH],[H],[OH],[OH]

>  <m_chem_types>  (1)
1:backbone_n,2:backbone_c,3:backbone_n_mod,4:phosphate_p,5:phosphate_p

>  <m_activation_policy>  (1)
canonical-sites-v1

$$$$

     RDKit          2D

 14 13  0  0  0  0  0  0  0  0999 V2000
   -2.9610   -1.9618    0.0000 R   0  0  0  0  0  1  0  0  0  0  0  0
   -1.5375   -1.4887    0.0000 N   0  0  0  0  0  0  0  0  0  0  0  0
   -0.4161   -2.4850    0.0000 R   0  0  0  0  0  1  0  0  0  0  0  0
   -1.2355   -0.0195    0.0000 C   0  0  0  0  0  0  0  0  0  0  0  0
   -2.3569    0.9768    0.0000 C   0  0  0  0  0  0  0  0  0  0  0  0
   -2.0548    2.4460    0.0000 R   0  0  0  0  0  1  0  0  0  0  0  0
   -3.7803    0.5037    0.0000 O   0  0  0  0  0  0  0  0  0  0  0  0
    0.1880    0.4536    0.0000 C   0  0  0  0  0  0  0  0  0  0  0  0
    0.4900    1.9229    0.0000 C   0  0  0  0  0  0  0  0  0  0  0  0
    1.3094   -0.5426    0.0000 O   0  0  0  0  0  0  0  0  0  0  0  0
    2.7328   -0.0696    0.0000 P   0  0  0  0  0  0  0  0  0  0  0  0
    3.2059   -1.4931    0.0000 R   0  0  0  0  0  1  0  0  0  0  0  0
    2.2598    1.3539    0.0000 R   0  0  0  0  0  1  0  0  0  0  0  0
    4.1563    0.4034    0.0000 O   0  0  0  0  0  0  0  0  0  0  0  0
  1  2  1  0
  2  3  1  0
  4  2  1  6
  4  5  1  0
  5  6  1  0
  5  7  2  0
  4  8  1  0
  8  9  1  6
  8 10  1  0
 10 11  1  0
 11 12  1  0
 11 13  1  0
 11 14  2  0
M  ISO  5   1   1   3   3   6   2  12   4  13   5
M  END
>  <symbol>  (1)
pThr

>  <m_abbr>  (1)
pThr

>  <m_name>  (1)
O-phosphothreonine

>  <m_type>  (1)
aa

>  <m_subtype>  (1)
natural

>  <m_Rgroups>  (1)
[H],[OH],[H],[OH],[OH]

>  <m_chem_types>  (1)
1:backbone_n,2:backbone_c,3:backbone_n_mod,4:phosphate_p,5:phosphate_p

>  <m_activation_policy>  (1)
canonical-sites-v1

$$$$

     RDKit          2D

 19 19  0  0  0  0  0  0  0  0999 V2000
   -4.0746    2.1896    0.0000 R   0  0  0  0  0  1  0  0  0  0  0  0
   -2.9144    1.2389    0.0000 N   0  0  0  0  0  0  0  0  0  0  0  0
   -1.5109    1.7684    0.0000 R   0  0  0  0  0  1  0  0  0  0  0  0
   -3.1576   -0.2413    0.0000 C   0  0  0  0  0  0  0  0  0  0  0  0
   -1.9973   -1.1920    0.0000 C   0  0  0  0  0  0  0  0  0  0  0  0
   -0.5939   -0.6625    0.0000 C   0  0  0  0  0  0  0  0  0  0  0  0
   -0.3507    0.8177    0.0000 C   0  0  0  0  0  0  0  0  0  0  0  0
    1.0528    1.3471    0.0000 C   0  0  0  0  0  0  0  0  0  0  0  0
    2.2130    0.3964    0.0000 C   0  0  0  0  0  0  0  0  0  0  0  0
    3.6165    0.9259    0.0000 O   0  0  0  0  0  0  0  0  0  0  0  0
    4.7767   -0.0248    0.0000 P   0  0  0  0  0  0  0  0  0  0  0  0
    5.7274    1.1355    0.0000 R   0  0  0  0  0  1  0  0  0  0  0  0
    3.8261   -1.1850    0.0000 R   0  0  0  0  0  1  0  0  0  0  0  0
    5.9370   -0.9755    0.0000 O   0  0  0  0  0  0  0  0  0  0  0  0
    1.9698   -1.0837    0.0000 C   0  0  0  0  0  0  0  0  0  0  0  0
    0.5664   -1.6132    0.0000 C   0  0  0  0  0  0  0  0  0  0  0  0
   -4.5610   -0.7707    0.0000 C   0  0  0  0  0  0  0  0  0  0  0  0
   -5.7213    0.1800    0.0000 R   0  0  0  0  0  1  0  0  0  0  0  0
   -4.8042   -2.2509    0.0000 O   0  0  0  0  0  0  0  0  0  0  0  0
  1  2  1  0
  2  3  1  0
  2  4  1  0
  4  5  1  1
  5  6  1  0
  6  7  1  0
  7  8  2  0
  8  9  1  0
  9 10  1  0
 10 11  1  0
 11 12  1  0
 11 13  1  0
 11 14  2  0
  9 15  2  0
 15 16  1  0
  4 17  1  0
 17 18  1  0
 17 19  2  0
 16  6  2  0
M  ISO  5   1   1   3   3  12   4  13   5  18   2
M  END
>  <symbol>  (1)
pTyr

>  <m_abbr>  (1)
pTyr

>  <m_name>  (1)
O-phosphotyrosine

>  <m_type>  (1)
aa

>  <m_subtype>  (1)
natural

>  <m_Rgroups>  (1)
[H],[OH],[H],[OH],[OH]

>  <m_chem_types>  (1)
1:backbone_n,2:backbone_c,3:backbone_n_mod,4:phosphate_p,5:phosphate_p

>  <m_activation_policy>  (1)
canonical-sites-v1

$$$$

     RDKit          2D

 11 10  0  0  0  0  0  0  0  0999 V2000
   -3.0813    0.0866    0.0000 R   0  0  0  0  0  1  0  0  0  0  0  0
   -1.8784   -0.8095    0.0000 N   0  0  0  0  0  0  0  0  0  0  0  0
   -2.0531   -2.2993    0.0000 R   0  0  0  0  0  1  0  0  0  0  0  0
   -0.5009   -0.2159    0.0000 C   0  0  0  0  0  0  0  0  0  0  0  0
    0.7020   -1.1120    0.0000 C   0  0  0  0  0  0  0  0  0  0  0  0
    2.0795   -0.5184    0.0000 N   0  0  0  0  0  0  0  0  0  0  0  0
    3.2824   -1.4145    0.0000 R   0  0  0  0  0  1  0  0  0  0  0  0
    2.2541    0.9714    0.0000 R   0  0  0  0  0  1  0  0  0  0  0  0
   -0.3263    1.2739    0.0000 C   0  0  0  0  0  0  0  0  0  0  0  0
    1.0513    1.8676    0.0000 R   0  0  0  0  0  1  0  0  0  0  0  0
   -1.5291    2.1701    0.0000 O   0  0  0  0  0  0  0  0  0  0  0  0
  1  2  1  0
  2  3  1  0
  2  4  1  0
  4  5  1  0
  5  6  1  0
  6  7  1  0
  6  8  1  0
  4  9  1  0
  9 10  1  0
  9 11  2  0
M  ISO  5   1   1   3   3   7   4   8   5  10   2
M  END
>  <symbol>  (344) 
TL3

>  <m_abbr>  (344) 
TL3

>  <m_name>  (344) 
Trilinker-3

>  <m_type>  (344) 
aa

>  <m_subtype>  (344) 
modified

>  <m_Rgroups>  (344) 
[H],[OH],[H],[H],[H]

>  <m_chem_types>  (344) 
1:backbone_n,2:backbone_c,3:backbone_n_mod,4:amine_primary,5:amine_primary

>  <m_activation_policy>  (344) 
canonical-sites-v1

$$$$

     RDKit          2D

 16 16  0  0  0  0  0  0  0  0999 V2000
   -4.2930   -0.2780    0.0000 R   0  0  0  0  0  1  0  0  0  0  0  0
   -3.0124   -1.0590    0.0000 N   0  0  0  0  0  0  0  0  0  0  0  0
   -3.0485   -2.5586    0.0000 R   0  0  0  0  0  1  0  0  0  0  0  0
   -1.6957   -0.3405    0.0000 C   0  0  0  0  0  0  0  0  0  0  0  0
   -0.4151   -1.1216    0.0000 C   0  0  0  0  0  0  0  0  0  0  0  0
    0.9017   -0.4031    0.0000 N   0  0  0  0  0  0  0  0  0  0  0  0
    1.0943    1.0845    0.0000 C   0  0  0  0  0  0  0  0  0  0  0  0
    0.3196    2.0204    0.0000 O   0  0  0  0  0  0  0  0  0  0  0  0
    2.5686    1.3609    0.0000 C   0  0  0  0  0  0  0  0  0  0  0  0
    3.2871    0.0442    0.0000 C   0  0  0  0  0  0  0  0  0  0  0  0
    4.7747   -0.1485    0.0000 R   0  0  0  0  0  1  0  0  0  0  0  0
    2.2569   -1.0460    0.0000 C   0  0  0  0  0  0  0  0  0  0  0  0
    2.5333   -2.5203    0.0000 O   0  0  0  0  0  0  0  0  0  0  0  0
   -1.6595    1.1590    0.0000 C   0  0  0  0  0  0  0  0  0  0  0  0
   -0.6719    1.8667    0.0000 R   0  0  0  0  0  1  0  0  0  0  0  0
   -2.9401    1.9401    0.0000 O   0  0  0  0  0  0  0  0  0  0  0  0
  1  2  1  0
  2  3  1  0
  2  4  1  0
  4  5  1  6
  5  6  1  0
  6  7  1  0
  7  8  2  0
  7  9  1  0
  9 10  2  0
 10 11  1  0
 10 12  1  0
 12 13  2  0
  4 14  1  0
 14 15  1  0
 14 16  2  0
 12  6  1  0
M  ISO  4   1   1   3   3  11   4  15   2
M  END
>  <symbol>  (345) 
MalAla

>  <m_abbr>  (345) 
MalAla

>  <m_name>  (345) 
L-2-amino-3-maleimidopropanoic acid

>  <m_type>  (345) 
aa

>  <m_subtype>  (345) 
modified

>  <m_Rgroups>  (345) 
[H],[OH],[H],[H]

>  <m_chem_types>  (345) 
1:backbone_n,2:backbone_c,3:backbone_n_mod,4:maleimide_c

>  <m_activation_policy>  (345) 
canonical-sites-v1

$$$$

     RDKit          2D

 19 19  0  0  0  0  0  0  0  0999 V2000
   -5.3874   -1.7266    0.0000 R   0  0  0  0  0  1  0  0  0  0  0  0
   -3.9575   -1.2732    0.0000 N   0  0  0  0  0  0  0  0  0  0  0  0
   -2.8500   -2.2848    0.0000 R   0  0  0  0  0  1  0  0  0  0  0  0
   -3.6352    0.1917    0.0000 C   0  0  0  0  0  0  0  0  0  0  0  0
   -2.2054    0.6451    0.0000 C   0  0  0  0  0  0  0  0  0  0  0  0
   -1.0978   -0.3665    0.0000 C   0  0  0  0  0  0  0  0  0  0  0  0
    0.3320    0.0869    0.0000 C   0  0  0  0  0  0  0  0  0  0  0  0
    1.4396   -0.9247    0.0000 C   0  0  0  0  0  0  0  0  0  0  0  0
    2.8694   -0.4713    0.0000 N   0  0  0  0  0  0  0  0  0  0  0  0
    4.0766   -1.3616    0.0000 C   0  0  0  0  0  0  0  0  0  0  0  0
    4.0660   -2.8615    0.0000 O   0  0  0  0  0  0  0  0  0  0  0  0
    5.2964   -0.4885    0.0000 C   0  0  0  0  0  0  0  0  0  0  0  0
    4.8430    0.9413    0.0000 C   0  0  0  0  0  0  0  0  0  0  0  0
    5.7333    2.1485    0.0000 R   0  0  0  0  0  1  0  0  0  0  0  0
    3.3430    0.9520    0.0000 C   0  0  0  0  0  0  0  0  0  0  0  0
    2.4700    2.1717    0.0000 O   0  0  0  0  0  0  0  0  0  0  0  0
   -4.7428    1.2033    0.0000 C   0  0  0  0  0  0  0  0  0  0  0  0
   -6.1726    0.7499    0.0000 R   0  0  0  0  0  1  0  0  0  0  0  0
   -4.4205    2.6683    0.0000 O   0  0  0  0  0  0  0  0  0  0  0  0
  1  2  1  0
  2  3  1  0
  2  4  1  0
  4  5  1  6
  5  6  1  0
  6  7  1  0
  7  8  1  0
  8  9  1  0
  9 10  1  0
 10 11  2  0
 10 12  1  0
 12 13  2  0
 13 14  1  0
 13 15  1  0
 15 16  2  0
  4 17  1  0
 17 18  1  0
 17 19  2  0
 15  9  1  0
M  ISO  4   1   1   3   3  14   4  18   2
M  END
>  <symbol>  (346) 
MalLys

>  <m_abbr>  (346) 
MalLys

>  <m_name>  (346) 
L-6-maleimido-lysine

>  <m_type>  (346) 
aa

>  <m_subtype>  (346) 
modified

>  <m_Rgroups>  (346) 
[H],[OH],[H],[H]

>  <m_chem_types>  (346) 
1:backbone_n,2:backbone_c,3:backbone_n_mod,4:maleimide_c

>  <m_activation_policy>  (346) 
canonical-sites-v1

$$$$

     RDKit          2D

 11 10  0  0  0  0  0  0  0  0999 V2000
    1.2112    2.4550    0.0000 R   0  0  0  0  0  1  0  0  0  0  0  0
    0.0773    1.4730    0.0000 N   0  0  0  0  0  0  0  0  0  0  0  0
   -1.3401    1.9640    0.0000 R   0  0  0  0  0  1  0  0  0  0  0  0
    0.3608   -0.0000    0.0000 C   0  0  0  0  0  0  0  0  0  0  0  0
    1.7782   -0.4910    0.0000 C   0  0  0  0  0  0  0  0  0  0  0  0
    2.0616   -1.9640    0.0000 R   0  0  0  0  0  1  0  0  0  0  0  0
    2.9120    0.4910    0.0000 O   0  0  0  0  0  0  0  0  0  0  0  0
   -0.7731   -0.9820    0.0000 C   0  0  0  0  0  0  0  0  0  0  0  0
   -0.4896   -2.4550    0.0000 R   0  0  0  0  0  1  0  0  0  0  0  0
   -2.1905   -0.4910    0.0000 C   0  0  0  0  0  0  0  0  0  0  0  0
   -3.6078    0.0000    0.0000 C   0  0  0  0  0  0  0  0  0  0  0  0
  1  2  1  0
  2  3  1  0
  2  4  1  0
  4  5  1  0
  5  6  1  0
  5  7  2  0
  4  8  1  6
  8  9  1  0
  8 10  1  0
 10 11  3  0
M  ISO  4   1   1   3   3   6   2   9   4
M  END
>  <symbol>  (347) 
Pra

>  <m_abbr>  (347) 
Pra

>  <m_name>  (347) 
L-propargylglycine

>  <m_type>  (347) 
aa

>  <m_subtype>  (347) 
modified

>  <m_Rgroups>  (347) 
[H],[OH],[H],[H]

>  <m_chem_types>  (347) 
1:backbone_n,2:backbone_c,3:backbone_n_mod,4:alkyne_c

>  <m_activation_policy>  (347) 
canonical-sites-v1

$$$$

     RDKit          2D

 12 11  0  0  0  0  0  0  0  0999 V2000
   -3.2194    0.6578    0.0000 R   0  0  0  0  0  1  0  0  0  0  0  0
   -2.2612   -0.4963    0.0000 N   0  0  0  0  0  0  0  0  0  0  0  0
   -2.7816   -1.9032    0.0000 R   0  0  0  0  0  1  0  0  0  0  0  0
   -0.7826   -0.2436    0.0000 C   0  0  0  0  0  0  0  0  0  0  0  0
    0.1755   -1.3977    0.0000 C   0  0  0  0  0  0  0  0  0  0  0  0
    1.6541   -1.1450    0.0000 C   0  0  0  0  0  0  0  0  0  0  0  0
    2.6122   -2.2991    0.0000 R   0  0  0  0  0  1  0  0  0  0  0  0
    2.1745    0.2619    0.0000 C   0  0  0  0  0  0  0  0  0  0  0  0
    2.6949    1.6687    0.0000 C   0  0  0  0  0  0  0  0  0  0  0  0
   -0.2622    1.1632    0.0000 C   0  0  0  0  0  0  0  0  0  0  0  0
    1.2163    1.4160    0.0000 R   0  0  0  0  0  1  0  0  0  0  0  0
   -1.2204    2.3173    0.0000 O   0  0  0  0  0  0  0  0  0  0  0  0
  1  2  1  0
  2  3  1  0
  2  4  1  0
  4  5  1  6
  5  6  1  0
  6  7  1  0
  6  8  1  0
  8  9  3  0
  4 10  1  0
 10 11  1  0
 10 12  2  0
M  ISO  4   1   1   3   3   7   4  11   2
M  END
>  <symbol>  (348) 
Hpg

>  <m_abbr>  (348) 
Hpg

>  <m_name>  (348) 
L-homopropargylglycine

>  <m_type>  (348) 
aa

>  <m_subtype>  (348) 
modified

>  <m_Rgroups>  (348) 
[H],[OH],[H],[H]

>  <m_chem_types>  (348) 
1:backbone_n,2:backbone_c,3:backbone_n_mod,4:alkyne_c

>  <m_activation_policy>  (348) 
canonical-sites-v1

$$$$

     RDKit          2D

 12 11  0  0  0  0  0  0  0  0999 V2000
   -2.5969   -1.8514    0.0000 R   0  0  0  0  0  1  0  0  0  0  0  0
   -1.1525   -1.4469    0.0000 N   0  0  0  0  0  0  0  0  0  0  0  0
   -0.0800   -2.4956    0.0000 R   0  0  0  0  0  1  0  0  0  0  0  0
   -0.7806    0.0062    0.0000 C   0  0  0  0  0  0  0  0  0  0  0  0
   -1.8531    1.0549    0.0000 C   0  0  0  0  0  0  0  0  0  0  0  0
   -1.4812    2.5081    0.0000 R   0  0  0  0  0  1  0  0  0  0  0  0
   -3.2976    0.6504    0.0000 O   0  0  0  0  0  0  0  0  0  0  0  0
    0.6638    0.4107    0.0000 C   0  0  0  0  0  0  0  0  0  0  0  0
    1.0357    1.8639    0.0000 R   0  0  0  0  0  1  0  0  0  0  0  0
    1.7364   -0.6379    0.0000 N   0  0  0  0  0  0  0  0  0  0  0  0
    3.1808   -0.2334    0.0000 N   0  0  0  0  0  0  0  0  0  0  0  0
    4.6252    0.1711    0.0000 N   0  0  0  0  0  0  0  0  0  0  0  0
  1  2  1  0
  2  3  1  0
  2  4  1  0
  4  5  1  0
  5  6  1  0
  5  7  2  0
  4  8  1  6
  8  9  1  0
  8 10  1  0
 10 11  2  0
 11 12  2  0
M  CHG  2  11   1  12  -1
M  ISO  4   1   1   3   3   6   2   9   4
M  END
>  <symbol>  (349) 
AzAla

>  <m_abbr>  (349) 
AzAla

>  <m_name>  (349) 
L-azidoalanine

>  <m_type>  (349) 
aa

>  <m_subtype>  (349) 
modified

>  <m_Rgroups>  (349) 
[H],[OH],[H],[H]

>  <m_chem_types>  (349) 
1:backbone_n,2:backbone_c,3:backbone_n_mod,4:azide_alpha_c

>  <m_activation_policy>  (349) 
canonical-sites-v1

$$$$

     RDKit          2D

 13 12  0  0  0  0  0  0  0  0999 V2000
   -3.6678    0.7870    0.0000 R   0  0  0  0  0  1  0  0  0  0  0  0
   -2.7413   -0.3926    0.0000 N   0  0  0  0  0  0  0  0  0  0  0  0
   -3.2995   -1.7848    0.0000 R   0  0  0  0  0  1  0  0  0  0  0  0
   -1.2564   -0.1799    0.0000 C   0  0  0  0  0  0  0  0  0  0  0  0
   -0.3298   -1.3595    0.0000 C   0  0  0  0  0  0  0  0  0  0  0  0
    1.1550   -1.1469    0.0000 C   0  0  0  0  0  0  0  0  0  0  0  0
    2.0816   -2.3265    0.0000 R   0  0  0  0  0  1  0  0  0  0  0  0
    1.7133    0.2454    0.0000 N   0  0  0  0  0  0  0  0  0  0  0  0
    3.1981    0.4580    0.0000 N   0  0  0  0  0  0  0  0  0  0  0  0
    4.6830    0.6707    0.0000 N   0  0  0  0  0  0  0  0  0  0  0  0
   -0.6981    1.2123    0.0000 C   0  0  0  0  0  0  0  0  0  0  0  0
    0.7867    1.4250    0.0000 R   0  0  0  0  0  1  0  0  0  0  0  0
   -1.6247    2.3919    0.0000 O   0  0  0  0  0  0  0  0  0  0  0  0
  1  2  1  0
  2  3  1  0
  2  4  1  0
  4  5  1  6
  5  6  1  0
  6  7  1  0
  6  8  1  0
  8  9  2  0
  9 10  2  0
  4 11  1  0
 11 12  1  0
 11 13  2  0
M  CHG  2   9   1  10  -1
M  ISO  4   1   1   3   3   7   4  12   2
M  END
>  <symbol>  (350) 
AzHal

>  <m_abbr>  (350) 
AzHal

>  <m_name>  (350) 
L-azidohomoalanine

>  <m_type>  (350) 
aa

>  <m_subtype>  (350) 
modified

>  <m_Rgroups>  (350) 
[H],[OH],[H],[H]

>  <m_chem_types>  (350) 
1:backbone_n,2:backbone_c,3:backbone_n_mod,4:azide_alpha_c

>  <m_activation_policy>  (350) 
canonical-sites-v1

$$$$

     RDKit          2D

 15 15  0  0  0  0  0  0  0  0999 V2000
    2.2445    2.4438    0.0000 R   0  0  0  0  0  1  0  0  0  0  0  0
    1.1200    1.4510    0.0000 N   0  0  0  0  0  0  0  0  0  0  0  0
   -0.3020    1.9284    0.0000 R   0  0  0  0  0  1  0  0  0  0  0  0
    1.4176   -0.0192    0.0000 C   0  0  0  0  0  0  0  0  0  0  0  0
    2.8396   -0.4965    0.0000 C   0  0  0  0  0  0  0  0  0  0  0  0
    3.9641    0.4963    0.0000 R   0  0  0  0  0  1  0  0  0  0  0  0
    3.1372   -1.9667    0.0000 O   0  0  0  0  0  0  0  0  0  0  0  0
    0.2932   -1.0120    0.0000 C   0  0  0  0  0  0  0  0  0  0  0  0
    0.5907   -2.4821    0.0000 R   0  0  0  0  0  1  0  0  0  0  0  0
   -1.1288   -0.5346    0.0000 C   0  0  0  0  0  0  0  0  0  0  0  0
   -2.2533   -1.5274    0.0000 N   0  0  0  0  0  0  0  0  0  0  0  0
   -3.6753   -1.0500    0.0000 N   0  0  0  0  0  0  0  0  0  0  0  0
   -3.9728    0.4202    0.0000 C   0  0  0  0  0  0  0  0  0  0  0  0
   -2.8484    1.4130    0.0000 N   0  0  0  0  0  0  0  0  0  0  0  0
   -1.4264    0.9356    0.0000 N   0  0  0  0  0  0  0  0  0  0  0  0
  1  2  1  0
  2  3  1  0
  2  4  1  0
  4  5  1  0
  5  6  1  0
  5  7  2  0
  4  8  1  6
  8  9  1  0
  8 10  1  0
 10 11  2  0
 11 12  1  0
 12 13  2  0
 13 14  1  0
 14 15  2  0
 15 10  1  0
M  ISO  4   1   1   3   3   6   2   9   4
M  END
>  <symbol>  (351) 
TzAla

>  <m_abbr>  (351) 
TzAla

>  <m_name>  (351) 
L-tetrazinyl-alanine

>  <m_type>  (351) 
aa

>  <m_subtype>  (351) 
modified

>  <m_Rgroups>  (351) 
[H],[OH],[H],[H]

>  <m_chem_types>  (351) 
1:backbone_n,2:backbone_c,3:backbone_n_mod,4:tetrazine_c

>  <m_activation_policy>  (351) 
canonical-sites-v1

$$$$

     RDKit          2D

 19 19  0  0  0  0  0  0  0  0999 V2000
    5.1995    2.2488    0.0000 R   0  0  0  0  0  1  0  0  0  0  0  0
    3.9235    1.4602    0.0000 N   0  0  0  0  0  0  0  0  0  0  0  0
    2.6026    2.1710    0.0000 R   0  0  0  0  0  1  0  0  0  0  0  0
    3.9684   -0.0391    0.0000 C   0  0  0  0  0  0  0  0  0  0  0  0
    2.6924   -0.8277    0.0000 C   0  0  0  0  0  0  0  0  0  0  0  0
    1.3715   -0.1169    0.0000 C   0  0  0  0  0  0  0  0  0  0  0  0
    0.0955   -0.9054    0.0000 C   0  0  0  0  0  0  0  0  0  0  0  0
   -1.2254   -0.1947    0.0000 C   0  0  0  0  0  0  0  0  0  0  0  0
   -2.5014   -0.9832    0.0000 C   0  0  0  0  0  0  0  0  0  0  0  0
   -2.4565   -2.4825    0.0000 R   0  0  0  0  0  1  0  0  0  0  0  0
   -3.8223   -0.2724    0.0000 C   0  0  0  0  0  0  0  0  0  0  0  0
   -5.0983   -1.0610    0.0000 N   0  0  0  0  0  0  0  0  0  0  0  0
   -6.4192   -0.3502    0.0000 N   0  0  0  0  0  0  0  0  0  0  0  0
   -6.4641    1.1491    0.0000 C   0  0  0  0  0  0  0  0  0  0  0  0
   -5.1881    1.9377    0.0000 N   0  0  0  0  0  0  0  0  0  0  0  0
   -3.8672    1.2269    0.0000 N   0  0  0  0  0  0  0  0  0  0  0  0
    5.2893   -0.7499    0.0000 C   0  0  0  0  0  0  0  0  0  0  0  0
    6.5653    0.0386    0.0000 R   0  0  0  0  0  1  0  0  0  0  0  0
    5.3342   -2.2492    0.0000 O   0  0  0  0  0  0  0  0  0  0  0  0
  1  2  1  0
  2  3  1  0
  2  4  1  0
  4  5  1  6
  5  6  1  0
  6  7  1  0
  7  8  1  0
  8  9  1  0
  9 10  1  0
  9 11  1  0
 11 12  2  0
 12 13  1  0
 13 14  2  0
 14 15  1  0
 15 16  2  0
  4 17  1  0
 17 18  1  0
 17 19  2  0
 16 11  1  0
M  ISO  4   1   1   3   3  10   4  18   2
M  END
>  <symbol>  (352) 
TzLys

>  <m_abbr>  (352) 
TzLys

>  <m_name>  (352) 
L-tetrazinyl-lysine

>  <m_type>  (352) 
aa

>  <m_subtype>  (352) 
modified

>  <m_Rgroups>  (352) 
[H],[OH],[H],[H]

>  <m_chem_types>  (352) 
1:backbone_n,2:backbone_c,3:backbone_n_mod,4:tetrazine_c

>  <m_activation_policy>  (352) 
canonical-sites-v1

$$$$

     RDKit          2D

 17 17  0  0  0  0  0  0  0  0999 V2000
    2.6803    2.4595    0.0000 R   0  0  0  0  0  1  0  0  0  0  0  0
    1.5848    1.4349    0.0000 N   0  0  0  0  0  0  0  0  0  0  0  0
    0.1497    1.8713    0.0000 R   0  0  0  0  0  1  0  0  0  0  0  0
    1.9244   -0.0261    0.0000 C   0  0  0  0  0  0  0  0  0  0  0  0
    3.3595   -0.4626    0.0000 C   0  0  0  0  0  0  0  0  0  0  0  0
    4.4550    0.5620    0.0000 R   0  0  0  0  0  1  0  0  0  0  0  0
    3.6991   -1.9236    0.0000 O   0  0  0  0  0  0  0  0  0  0  0  0
    0.8289   -1.0508    0.0000 C   0  0  0  0  0  0  0  0  0  0  0  0
    1.1685   -2.5118    0.0000 R   0  0  0  0  0  1  0  0  0  0  0  0
   -0.6062   -0.6143    0.0000 C   0  0  0  0  0  0  0  0  0  0  0  0
   -1.5586   -1.7732    0.0000 C   0  0  0  0  0  0  0  0  0  0  0  0
   -3.0515   -1.9192    0.0000 C   0  0  0  0  0  0  0  0  0  0  0  0
   -4.2104   -0.9668    0.0000 C   0  0  0  0  0  0  0  0  0  0  0  0
   -4.3563    0.5261    0.0000 C   0  0  0  0  0  0  0  0  0  0  0  0
   -3.4039    1.6850    0.0000 C   0  0  0  0  0  0  0  0  0  0  0  0
   -1.9110    1.8309    0.0000 C   0  0  0  0  0  0  0  0  0  0  0  0
   -0.7522    0.8785    0.0000 C   0  0  0  0  0  0  0  0  0  0  0  0
  1  2  1  0
  2  3  1  0
  2  4  1  0
  4  5  1  0
  5  6  1  0
  5  7  2  0
  4  8  1  6
  8  9  1  0
  8 10  1  0
 10 11  2  3
 11 12  1  0
 12 13  1  0
 13 14  1  0
 14 15  1  0
 15 16  1  0
 16 17  1  0
 17 10  1  0
M  ISO  4   1   1   3   3   6   2   9   4
M  END
>  <symbol>  (353) 
TcoAla

>  <m_abbr>  (353) 
TcoAla

>  <m_name>  (353) 
L-trans-cyclooctenyl-alanine

>  <m_type>  (353) 
aa

>  <m_subtype>  (353) 
modified

>  <m_Rgroups>  (353) 
[H],[OH],[H],[H]

>  <m_chem_types>  (353) 
1:backbone_n,2:backbone_c,3:backbone_n_mod,4:tco_c

>  <m_activation_policy>  (353) 
canonical-sites-v1

$$$$

     RDKit          2D

 20 20  0  0  0  0  0  0  0  0999 V2000
    5.6949   -1.6338    0.0000 R   0  0  0  0  0  1  0  0  0  0  0  0
    4.2675   -1.1730    0.0000 N   0  0  0  0  0  0  0  0  0  0  0  0
    3.1546   -2.1788    0.0000 R   0  0  0  0  0  1  0  0  0  0  0  0
    3.9528    0.2937    0.0000 C   0  0  0  0  0  0  0  0  0  0  0  0
    2.5254    0.7545    0.0000 C   0  0  0  0  0  0  0  0  0  0  0  0
    1.4126   -0.2513    0.0000 C   0  0  0  0  0  0  0  0  0  0  0  0
   -0.0149    0.2096    0.0000 C   0  0  0  0  0  0  0  0  0  0  0  0
   -1.1277   -0.7962    0.0000 C   0  0  0  0  0  0  0  0  0  0  0  0
   -0.8131   -2.2629    0.0000 R   0  0  0  0  0  1  0  0  0  0  0  0
   -2.5552   -0.3354    0.0000 C   0  0  0  0  0  0  0  0  0  0  0  0
   -3.5272   -1.4778    0.0000 C   0  0  0  0  0  0  0  0  0  0  0  0
   -5.0224   -1.5983    0.0000 C   0  0  0  0  0  0  0  0  0  0  0  0
   -6.1648   -0.6263    0.0000 C   0  0  0  0  0  0  0  0  0  0  0  0
   -6.2853    0.8689    0.0000 C   0  0  0  0  0  0  0  0  0  0  0  0
   -5.3133    2.0113    0.0000 C   0  0  0  0  0  0  0  0  0  0  0  0
   -3.8181    2.1318    0.0000 C   0  0  0  0  0  0  0  0  0  0  0  0
   -2.6757    1.1598    0.0000 C   0  0  0  0  0  0  0  0  0  0  0  0
    5.0657    1.2995    0.0000 C   0  0  0  0  0  0  0  0  0  0  0  0
    6.4931    0.8386    0.0000 R   0  0  0  0  0  1  0  0  0  0  0  0
    4.7510    2.7661    0.0000 O   0  0  0  0  0  0  0  0  0  0  0  0
  1  2  1  0
  2  3  1  0
  2  4  1  0
  4  5  1  1
  5  6  1  0
  6  7  1  0
  7  8  1  0
  8  9  1  0
  8 10  1  0
 10 11  2  3
 11 12  1  0
 12 13  1  0
 13 14  1  0
 14 15  1  0
 15 16  1  0
 16 17  1  0
  4 18  1  0
 18 19  1  0
 18 20  2  0
 17 10  1  0
M  ISO  4   1   1   3   3   9   4  19   2
M  END
>  <symbol>  (354) 
TcoLys

>  <m_abbr>  (354) 
TcoLys

>  <m_name>  (354) 
L-trans-cyclooctenyl-lysine

>  <m_type>  (354) 
aa

>  <m_subtype>  (354) 
modified

>  <m_Rgroups>  (354) 
[H],[OH],[H],[H]

>  <m_chem_types>  (354) 
1:backbone_n,2:backbone_c,3:backbone_n_mod,4:tco_c

>  <m_activation_policy>  (354) 
canonical-sites-v1

$$$$

     RDKit          2D

 18 18  0  0  0  0  0  0  0  0999 V2000
   -3.1179    2.4340    0.0000 R   0  0  0  0  0  1  0  0  0  0  0  0
   -2.0209    1.4109    0.0000 N   0  0  0  0  0  0  0  0  0  0  0  0
   -0.5864    1.8495    0.0000 R   0  0  0  0  0  1  0  0  0  0  0  0
   -2.3583   -0.0506    0.0000 C   0  0  0  0  0  0  0  0  0  0  0  0
   -1.2613   -1.0736    0.0000 C   0  0  0  0  0  0  0  0  0  0  0  0
    0.1731   -0.6351    0.0000 C   0  0  0  0  0  0  0  0  0  0  0  0
    0.3169    0.8580    0.0000 C   0  0  0  0  0  0  0  0  0  0  0  0
    1.4744    1.8121    0.0000 C   0  0  0  0  0  0  0  0  0  0  0  0
    2.9675    1.6683    0.0000 C   0  0  0  0  0  0  0  0  0  0  0  0
    3.9216    0.5109    0.0000 C   0  0  0  0  0  0  0  0  0  0  0  0
    5.3560    0.9494    0.0000 R   0  0  0  0  0  1  0  0  0  0  0  0
    3.7778   -0.9822    0.0000 C   0  0  0  0  0  0  0  0  0  0  0  0
    2.6203   -1.9363    0.0000 C   0  0  0  0  0  0  0  0  0  0  0  0
    1.1272   -1.7925    0.0000 C   0  0  0  0  0  0  0  0  0  0  0  0
    0.4230   -3.1169    0.0000 R   0  0  0  0  0  1  0  0  0  0  0  0
   -3.7928   -0.4891    0.0000 C   0  0  0  0  0  0  0  0  0  0  0  0
   -4.8898    0.5339    0.0000 R   0  0  0  0  0  1  0  0  0  0  0  0
   -4.1303   -1.9507    0.0000 O   0  0  0  0  0  0  0  0  0  0  0  0
  1  2  1  0
  2  3  1  0
  2  4  1  0
  4  5  1  1
  5  6  1  0
  6  7  1  0
  7  8  1  0
  8  9  1  0
  9 10  1  0
 10 11  1  0
 10 12  1  0
 12 13  3  0
 13 14  1  0
 14 15  1  0
  4 16  1  0
 16 17  1  0
 16 18  2  0
 14  6  1  0
M  ISO  5   1   1   3   3  11   5  15   4  17   2
M  END
>  <symbol>  (355) 
CyoAla

>  <m_abbr>  (355) 
CyoAla

>  <m_name>  (355) 
L-cyclooctyn-1-yl-alanine

>  <m_type>  (355) 
aa

>  <m_subtype>  (355) 
modified

>  <m_Rgroups>  (355) 
[H],[OH],[H],[H],[H]

>  <m_chem_types>  (355) 
1:backbone_n,2:backbone_c,3:backbone_n_mod,4:cyclooctyne_c,5:cyclooctyne_c

>  <m_activation_policy>  (355) 
canonical-sites-v1

$$$$

     RDKit          2D

 21 21  0  0  0  0  0  0  0  0999 V2000
   -6.1756   -1.6079    0.0000 R   0  0  0  0  0  1  0  0  0  0  0  0
   -4.7436   -1.1616    0.0000 N   0  0  0  0  0  0  0  0  0  0  0  0
   -3.6411   -2.1788    0.0000 R   0  0  0  0  0  1  0  0  0  0  0  0
   -4.4140    0.3017    0.0000 C   0  0  0  0  0  0  0  0  0  0  0  0
   -2.9819    0.7479    0.0000 C   0  0  0  0  0  0  0  0  0  0  0  0
   -1.8794   -0.2692    0.0000 C   0  0  0  0  0  0  0  0  0  0  0  0
   -0.4473    0.1770    0.0000 C   0  0  0  0  0  0  0  0  0  0  0  0
    0.6552   -0.8401    0.0000 C   0  0  0  0  0  0  0  0  0  0  0  0
    2.0873   -0.3939    0.0000 C   0  0  0  0  0  0  0  0  0  0  0  0
    2.2231    1.1000    0.0000 C   0  0  0  0  0  0  0  0  0  0  0  0
    3.3754    2.0603    0.0000 C   0  0  0  0  0  0  0  0  0  0  0  0
    4.8692    1.9245    0.0000 C   0  0  0  0  0  0  0  0  0  0  0  0
    5.8295    0.7722    0.0000 C   0  0  0  0  0  0  0  0  0  0  0  0
    7.2616    1.2184    0.0000 R   0  0  0  0  0  1  0  0  0  0  0  0
    5.6937   -0.7217    0.0000 C   0  0  0  0  0  0  0  0  0  0  0  0
    4.5414   -1.6820    0.0000 C   0  0  0  0  0  0  0  0  0  0  0  0
    3.0476   -1.5462    0.0000 C   0  0  0  0  0  0  0  0  0  0  0  0
    2.3505   -2.8743    0.0000 R   0  0  0  0  0  1  0  0  0  0  0  0
   -5.5164    1.3188    0.0000 C   0  0  0  0  0  0  0  0  0  0  0  0
   -6.9485    0.8726    0.0000 R   0  0  0  0  0  1  0  0  0  0  0  0
   -5.1868    2.7822    0.0000 O   0  0  0  0  0  0  0  0  0  0  0  0
  1  2  1  0
  2  3  1  0
  2  4  1  0
  4  5  1  6
  5  6  1  0
  6  7  1  0
  7  8  1  0
  8  9  1  0
  9 10  1  0
 10 11  1  0
 11 12  1  0
 12 13  1  0
 13 14  1  0
 13 15  1  0
 15 16  3  0
 16 17  1  0
 17 18  1  0
  4 19  1  0
 19 20  1  0
 19 21  2  0
 17  9  1  0
M  ISO  5   1   1   3   3  14   5  18   4  20   2
M  END
>  <symbol>  (356) 
CyoLys

>  <m_abbr>  (356) 
CyoLys

>  <m_name>  (356) 
L-cyclooctyn-1-yl-lysine

>  <m_type>  (356) 
aa

>  <m_subtype>  (356) 
modified

>  <m_Rgroups>  (356) 
[H],[OH],[H],[H],[H]

>  <m_chem_types>  (356) 
1:backbone_n,2:backbone_c,3:backbone_n_mod,4:cyclooctyne_c,5:cyclooctyne_c

>  <m_activation_policy>  (356) 
canonical-sites-v1

$$$$

     RDKit          2D

 11 11  0  0  0  0  0  0  0  0999 V2000
    3.6680    0.0911    0.0000 R   0  0  0  0  0  1  0  0  0  0  0  0
    2.2095    0.4412    0.0000 C   0  0  0  0  0  0  0  0  0  0  0  0
    1.7834    1.8794    0.0000 O   0  0  0  0  0  0  0  0  0  0  0  0
    1.1770   -0.6469    0.0000 C   0  0  0  0  0  0  0  0  0  0  0  0
    1.6031   -2.0851    0.0000 R   0  0  0  0  0  1  0  0  0  0  0  0
   -0.2816   -0.2968    0.0000 C   0  0  0  0  0  0  0  0  0  0  0  0
   -1.3141   -1.3849    0.0000 N   0  0  0  0  0  0  0  0  0  0  0  0
   -2.7726   -1.0347    0.0000 N   0  0  0  0  0  0  0  0  0  0  0  0
   -3.1987    0.4035    0.0000 C   0  0  0  0  0  0  0  0  0  0  0  0
   -2.1662    1.4916    0.0000 N   0  0  0  0  0  0  0  0  0  0  0  0
   -0.7077    1.1415    0.0000 N   0  0  0  0  0  0  0  0  0  0  0  0
  1  2  1  0
  2  3  2  0
  2  4  1  0
  4  5  1  0
  4  6  1  0
  6  7  2  0
  7  8  1  0
  8  9  2  0
  9 10  1  0
 10 11  2  0
 11  6  1  0
M  ISO  2   1   2   5   4
M  END
>  <symbol>  (357) 
Tz

>  <m_abbr>  (357) 
Tz

>  <m_name>  (357) 
Tetrazine-acetic acid cap

>  <m_type>  (357) 
cap

>  <m_subtype>  (357) 
cap

>  <m_Rgroups>  (357) 
None,[OH],None,[H]

>  <m_chem_types>  (357) 
2:backbone_c,4:tetrazine_c

>  <m_activation_policy>  (357) 
canonical-sites-v1

$$$$

     RDKit          2D

 14 14  0  0  0  0  0  0  0  0999 V2000
    4.6185    1.5407    0.0000 R   0  0  0  0  0  1  0  0  0  0  0  0
    3.6543    0.3917    0.0000 C   0  0  0  0  0  0  0  0  0  0  0  0
    4.1672   -1.0178    0.0000 O   0  0  0  0  0  0  0  0  0  0  0  0
    2.1771    0.6524    0.0000 C   0  0  0  0  0  0  0  0  0  0  0  0
    1.2128   -0.4966    0.0000 C   0  0  0  0  0  0  0  0  0  0  0  0
    1.7257   -1.9062    0.0000 R   0  0  0  0  0  1  0  0  0  0  0  0
   -0.2644   -0.2360    0.0000 C   0  0  0  0  0  0  0  0  0  0  0  0
   -1.0705   -1.5010    0.0000 C   0  0  0  0  0  0  0  0  0  0  0  0
   -2.5349   -1.8256    0.0000 C   0  0  0  0  0  0  0  0  0  0  0  0
   -3.8000   -1.0195    0.0000 C   0  0  0  0  0  0  0  0  0  0  0  0
   -4.1245    0.4450    0.0000 C   0  0  0  0  0  0  0  0  0  0  0  0
   -3.3184    1.7100    0.0000 C   0  0  0  0  0  0  0  0  0  0  0  0
   -1.8539    2.0345    0.0000 C   0  0  0  0  0  0  0  0  0  0  0  0
   -0.5889    1.2285    0.0000 C   0  0  0  0  0  0  0  0  0  0  0  0
  1  2  1  0
  2  3  2  0
  2  4  1  0
  4  5  1  0
  5  6  1  0
  5  7  1  0
  7  8  2  3
  8  9  1  0
  9 10  1  0
 10 11  1  0
 11 12  1  0
 12 13  1  0
 13 14  1  0
 14  7  1  0
M  ISO  2   1   2   6   4
M  END
>  <symbol>  (358) 
TCO

>  <m_abbr>  (358) 
TCO

>  <m_name>  (358) 
trans-Cyclooctene-propionic acid cap

>  <m_type>  (358) 
cap

>  <m_subtype>  (358) 
cap

>  <m_Rgroups>  (358) 
None,[OH],None,[H]

>  <m_chem_types>  (358) 
2:backbone_c,4:tco_c

>  <m_activation_policy>  (358) 
canonical-sites-v1

$$$$

     RDKit          2D

 13 13  0  0  0  0  0  0  0  0999 V2000
   -4.3618    1.3150    0.0000 R   0  0  0  0  0  1  0  0  0  0  0  0
   -3.3918    0.1708    0.0000 C   0  0  0  0  0  0  0  0  0  0  0  0
   -3.8977   -1.2413    0.0000 O   0  0  0  0  0  0  0  0  0  0  0  0
   -1.9159    0.4387    0.0000 C   0  0  0  0  0  0  0  0  0  0  0  0
   -0.9460   -0.7055    0.0000 C   0  0  0  0  0  0  0  0  0  0  0  0
    0.5299   -0.4376    0.0000 N   0  0  0  0  0  0  0  0  0  0  0  0
    1.6142   -1.4742    0.0000 C   0  0  0  0  0  0  0  0  0  0  0  0
    1.4129   -2.9606    0.0000 O   0  0  0  0  0  0  0  0  0  0  0  0
    2.9350   -0.7633    0.0000 C   0  0  0  0  0  0  0  0  0  0  0  0
    2.6671    0.7126    0.0000 C   0  0  0  0  0  0  0  0  0  0  0  0
    3.7037    1.7968    0.0000 R   0  0  0  0  0  1  0  0  0  0  0  0
    1.1807    0.9139    0.0000 C   0  0  0  0  0  0  0  0  0  0  0  0
    0.4698    2.2347    0.0000 O   0  0  0  0  0  0  0  0  0  0  0  0
  1  2  1  0
  2  3  2  0
  2  4  1  0
  4  5  1  0
  5  6  1  0
  6  7  1  0
  7  8  2  0
  7  9  1  0
  9 10  2  0
 10 11  1  0
 10 12  1  0
 12 13  2  0
 12  6  1  0
M  ISO  2   1   2  11   4
M  END
>  <symbol>  (359) 
Mal

>  <m_abbr>  (359) 
Mal

>  <m_name>  (359) 
Maleimidopropionic acid cap

>  <m_type>  (359) 
cap

>  <m_subtype>  (359) 
cap

>  <m_Rgroups>  (359) 
None,[OH],None,[H]

>  <m_chem_types>  (359) 
2:backbone_c,4:maleimide_c

>  <m_activation_policy>  (359) 
canonical-sites-v1

$$$$

     RDKit          2D

 11 10  0  0  0  0  0  0  0  0999 V2000
   -3.3018   -0.2248    0.0000 R   0  0  0  0  0  1  0  0  0  0  0  0
   -1.9832   -0.9398    0.0000 N   0  0  0  0  0  0  0  0  0  0  0  0
   -1.9430   -2.4392    0.0000 R   0  0  0  0  0  1  0  0  0  0  0  0
   -0.7047   -0.1553    0.0000 C   0  0  0  0  0  0  0  0  0  0  0  0
    0.6140   -0.8702    0.0000 C   0  0  0  0  0  0  0  0  0  0  0  0
    1.8925   -0.0858    0.0000 O   0  0  0  0  0  0  0  0  0  0  0  0
    3.2111   -0.8007    0.0000 N   0  0  0  0  0  0  0  0  0  0  0  0
    4.4896   -0.0162    0.0000 R   0  0  0  0  0  1  0  0  0  0  0  0
   -0.7448    1.3442    0.0000 C   0  0  0  0  0  0  0  0  0  0  0  0
    0.5337    2.1287    0.0000 R   0  0  0  0  0  1  0  0  0  0  0  0
   -2.0634    2.0592    0.0000 O   0  0  0  0  0  0  0  0  0  0  0  0
  1  2  1  0
  2  3  1  0
  2  4  1  0
  4  5  1  6
  5  6  1  0
  6  7  1  0
  7  8  1  0
  4  9  1  0
  9 10  1  0
  9 11  2  0
M  ISO  4   1   1   3   3   8   4  10   2
M  END
>  <symbol>  (360) 
Aoa

>  <m_abbr>  (360) 
Aoa

>  <m_name>  (360) 
L-alpha-aminooxyalanine

>  <m_type>  (360) 
aa

>  <m_subtype>  (360) 
modified

>  <m_Rgroups>  (360) 
[H],[OH],[H],[H]

>  <m_chem_types>  (360) 
1:backbone_n,2:backbone_c,3:backbone_n_mod,4:aminooxy

>  <m_activation_policy>  (360) 
canonical-sites-v1

$$$$

     RDKit          2D

 17 17  0  0  0  0  0  0  0  0999 V2000
   -3.1584    2.3389    0.0000 R   0  0  0  0  0  1  0  0  0  0  0  0
   -2.1065    1.2696    0.0000 N   0  0  0  0  0  0  0  0  0  0  0  0
   -0.6545    1.6460    0.0000 R   0  0  0  0  0  1  0  0  0  0  0  0
   -2.5066   -0.1760    0.0000 C   0  0  0  0  0  0  0  0  0  0  0  0
   -1.4547   -1.2454    0.0000 C   0  0  0  0  0  0  0  0  0  0  0  0
   -0.0026   -0.8690    0.0000 C   0  0  0  0  0  0  0  0  0  0  0  0
    0.3974    0.5766    0.0000 C   0  0  0  0  0  0  0  0  0  0  0  0
    1.8495    0.9530    0.0000 C   0  0  0  0  0  0  0  0  0  0  0  0
    2.9014   -0.1163    0.0000 C   0  0  0  0  0  0  0  0  0  0  0  0
    4.3534    0.2600    0.0000 C   0  0  0  0  0  0  0  0  0  0  0  0
    5.4054   -0.8093    0.0000 R   0  0  0  0  0  1  0  0  0  0  0  0
    4.7535    1.7057    0.0000 O   0  0  0  0  0  0  0  0  0  0  0  0
    2.5013   -1.5620    0.0000 C   0  0  0  0  0  0  0  0  0  0  0  0
    1.0493   -1.9383    0.0000 C   0  0  0  0  0  0  0  0  0  0  0  0
   -3.9586   -0.5524    0.0000 C   0  0  0  0  0  0  0  0  0  0  0  0
   -5.0106    0.5169    0.0000 R   0  0  0  0  0  1  0  0  0  0  0  0
   -4.3587   -1.9980    0.0000 O   0  0  0  0  0  0  0  0  0  0  0  0
  1  2  1  0
  2  3  1  0
  2  4  1  0
  4  5  1  1
  5  6  1  0
  6  7  1  0
  7  8  2  0
  8  9  1  0
  9 10  1  0
 10 11  1  0
 10 12  2  0
  9 13  2  0
 13 14  1  0
  4 15  1  0
 15 16  1  0
 15 17  2  0
 14  6  2  0
M  ISO  4   1   1   3   3  11   4  16   2
M  END
>  <symbol>  (361) 
Ald

>  <m_abbr>  (361) 
Ald

>  <m_name>  (361) 
L-4-formylphenylalanine

>  <m_type>  (361) 
aa

>  <m_subtype>  (361) 
modified

>  <m_Rgroups>  (361) 
[H],[OH],[H],[H]

>  <m_chem_types>  (361) 
1:backbone_n,2:backbone_c,3:backbone_n_mod,4:aldehyde

>  <m_activation_policy>  (361) 
canonical-sites-v1

$$$$

     RDKit          2D

 12 12  0  0  0  0  0  0  0  0999 V2000
   -3.7979    1.2862    0.0000 R   0  0  0  0  0  1  0  0  0  0  0  0
   -2.8618    0.1141    0.0000 C   0  0  0  0  0  0  0  0  0  0  0  0
   -1.3787    0.3387    0.0000 C   0  0  0  0  0  0  0  0  0  0  0  0
   -0.8317    1.7353    0.0000 C   0  0  0  0  0  0  0  0  0  0  0  0
    0.6514    1.9599    0.0000 C   0  0  0  0  0  0  0  0  0  0  0  0
    1.5874    0.7878    0.0000 C   0  0  0  0  0  0  0  0  0  0  0  0
    3.0705    1.0124    0.0000 O   0  0  0  0  0  0  0  0  0  0  0  0
    4.0066   -0.1597    0.0000 C   0  0  0  0  0  0  0  0  0  0  0  0
    1.0404   -0.6089    0.0000 C   0  0  0  0  0  0  0  0  0  0  0  0
   -0.4427   -0.8334    0.0000 C   0  0  0  0  0  0  0  0  0  0  0  0
   -0.9898   -2.2301    0.0000 O   0  0  0  0  0  0  0  0  0  0  0  0
   -0.0537   -3.4022    0.0000 C   0  0  0  0  0  0  0  0  0  0  0  0
  1  2  1  0
  2  3  1  0
  3  4  1  0
  4  5  2  0
  5  6  1  0
  6  7  1  0
  7  8  1  0
  6  9  2  0
  9 10  1  0
 10 11  1  0
 11 12  1  0
 10  3  2  0
M  ISO  1   1   1
M  END
>  <symbol>  (362) 
Dmb

>  <m_abbr>  (362) 
Dmb

>  <m_name>  (362) 
2,4-Dimethoxybenzyl N-cap

>  <m_type>  (362) 
cap

>  <m_subtype>  (362) 
protecting

>  <m_Rgroups>  (362) 
[H]

>  <m_chem_types>  (362) 
1:carbon

>  <m_activation_policy>  (362) 
canonical-sites-v1

$$$$

     RDKit          2D

 18 18  0  0  0  0  0  0  0  0999 V2000
   -3.3850    2.3467    0.0000 R   0  0  0  0  0  1  0  0  0  0  0  0
   -2.3401    1.2705    0.0000 N   0  0  0  0  0  0  0  0  0  0  0  0
   -0.8856    1.6374    0.0000 R   0  0  0  0  0  1  0  0  0  0  0  0
   -2.7496   -0.1725    0.0000 C   0  0  0  0  0  0  0  0  0  0  0  0
   -1.7047   -1.2487    0.0000 C   0  0  0  0  0  0  0  0  0  0  0  0
   -0.2503   -0.8818    0.0000 C   0  0  0  0  0  0  0  0  0  0  0  0
    0.1593    0.5612    0.0000 C   0  0  0  0  0  0  0  0  0  0  0  0
    1.6137    0.9280    0.0000 C   0  0  0  0  0  0  0  0  0  0  0  0
    2.6586   -0.1482    0.0000 C   0  0  0  0  0  0  0  0  0  0  0  0
    4.1131    0.2186    0.0000 C   0  0  0  0  0  0  0  0  0  0  0  0
    5.5675    0.5855    0.0000 F   0  0  0  0  0  0  0  0  0  0  0  0
    4.4799   -1.2358    0.0000 F   0  0  0  0  0  0  0  0  0  0  0  0
    3.7463    1.6731    0.0000 F   0  0  0  0  0  0  0  0  0  0  0  0
    2.2491   -1.5912    0.0000 C   0  0  0  0  0  0  0  0  0  0  0  0
    0.7946   -1.9580    0.0000 C   0  0  0  0  0  0  0  0  0  0  0  0
   -4.2041   -0.5393    0.0000 C   0  0  0  0  0  0  0  0  0  0  0  0
   -5.2490    0.5369    0.0000 R   0  0  0  0  0  1  0  0  0  0  0  0
   -4.6136   -1.9823    0.0000 O   0  0  0  0  0  0  0  0  0  0  0  0
  1  2  1  0
  2  3  1  0
  2  4  1  0
  4  5  1  1
  5  6  1  0
  6  7  1  0
  7  8  2  0
  8  9  1  0
  9 10  1  0
 10 11  1  0
 10 12  1  0
 10 13  1  0
  9 14  2  0
 14 15  1  0
  4 16  1  0
 16 17  1  0
 16 18  2  0
 15  6  2  0
M  ISO  3   1   1   3   3  17   2
M  END
>  <symbol>  (363) 
Phe_4CF3

>  <m_abbr>  (363) 
Phe_4CF3

>  <m_name>  (363) 
L-4-(Trifluoromethyl)phenylalanine

>  <m_type>  (363) 
aa

>  <m_subtype>  (363) 
modified

>  <m_Rgroups>  (363) 
[H],[OH],[H]

>  <m_chem_types>  (363) 
1:backbone_n,2:backbone_c,3:backbone_n_mod

>  <m_activation_policy>  (363) 
canonical-sites-v1

$$$$

     RDKit          2D

 16 16  0  0  0  0  0  0  0  0999 V2000
   -2.8884    2.3527    0.0000 R   0  0  0  0  0  1  0  0  0  0  0  0
   -1.8355    1.2843    0.0000 N   0  0  0  0  0  0  0  0  0  0  0  0
   -0.3838    1.6619    0.0000 R   0  0  0  0  0  1  0  0  0  0  0  0
   -2.2344   -0.1617    0.0000 C   0  0  0  0  0  0  0  0  0  0  0  0
   -1.1815   -1.2301    0.0000 C   0  0  0  0  0  0  0  0  0  0  0  0
    0.2702   -0.8525    0.0000 C   0  0  0  0  0  0  0  0  0  0  0  0
    0.6690    0.5935    0.0000 C   0  0  0  0  0  0  0  0  0  0  0  0
    2.1207    0.9710    0.0000 C   0  0  0  0  0  0  0  0  0  0  0  0
    3.1736   -0.0974    0.0000 C   0  0  0  0  0  0  0  0  0  0  0  0
    4.6253    0.2802    0.0000 C   0  0  0  0  0  0  0  0  0  0  0  0
    6.0770    0.6578    0.0000 N   0  0  0  0  0  0  0  0  0  0  0  0
    2.7747   -1.5434    0.0000 C   0  0  0  0  0  0  0  0  0  0  0  0
    1.3230   -1.9210    0.0000 C   0  0  0  0  0  0  0  0  0  0  0  0
   -3.6861   -0.5393    0.0000 C   0  0  0  0  0  0  0  0  0  0  0  0
   -4.7389    0.5292    0.0000 R   0  0  0  0  0  1  0  0  0  0  0  0
   -4.0849   -1.9853    0.0000 O   0  0  0  0  0  0  0  0  0  0  0  0
  1  2  1  0
  2  3  1  0
  2  4  1  0
  4  5  1  1
  5  6  1  0
  6  7  1  0
  7  8  2  0
  8  9  1  0
  9 10  1  0
 10 11  3  0
  9 12  2  0
 12 13  1  0
  4 14  1  0
 14 15  1  0
 14 16  2  0
 13  6  2  0
M  ISO  3   1   1   3   3  15   2
M  END
>  <symbol>  (364) 
Phe_4CN

>  <m_abbr>  (364) 
Phe_4CN

>  <m_name>  (364) 
L-4-Cyanophenylalanine

>  <m_type>  (364) 
aa

>  <m_subtype>  (364) 
modified

>  <m_Rgroups>  (364) 
[H],[OH],[H]

>  <m_chem_types>  (364) 
1:backbone_n,2:backbone_c,3:backbone_n_mod

>  <m_activation_policy>  (364) 
canonical-sites-v1

$$$$

     RDKit          2D

 16 16  0  0  0  0  0  0  0  0999 V2000
   -3.0227    2.2431    0.0000 R   0  0  0  0  0  1  0  0  0  0  0  0
   -1.8997    1.2486    0.0000 N   0  0  0  0  0  0  0  0  0  0  0  0
   -0.4770    1.7239    0.0000 R   0  0  0  0  0  1  0  0  0  0  0  0
   -2.1995   -0.2211    0.0000 C   0  0  0  0  0  0  0  0  0  0  0  0
   -1.0766   -1.2156    0.0000 C   0  0  0  0  0  0  0  0  0  0  0  0
    0.3462   -0.7404    0.0000 C   0  0  0  0  0  0  0  0  0  0  0  0
    0.6459    0.7294    0.0000 C   0  0  0  0  0  0  0  0  0  0  0  0
    2.0687    1.2046    0.0000 C   0  0  0  0  0  0  0  0  0  0  0  0
    3.1916    0.2101    0.0000 C   0  0  0  0  0  0  0  0  0  0  0  0
    4.6143    0.6854    0.0000 O   0  0  0  0  0  0  0  0  0  0  0  0
    5.7373   -0.3091    0.0000 C   0  0  0  0  0  0  0  0  0  0  0  0
    2.8918   -1.2596    0.0000 C   0  0  0  0  0  0  0  0  0  0  0  0
    1.4691   -1.7348    0.0000 C   0  0  0  0  0  0  0  0  0  0  0  0
   -3.6222   -0.6964    0.0000 C   0  0  0  0  0  0  0  0  0  0  0  0
   -4.7452    0.2981    0.0000 R   0  0  0  0  0  1  0  0  0  0  0  0
   -3.9220   -2.1661    0.0000 O   0  0  0  0  0  0  0  0  0  0  0  0
  1  2  1  0
  2  3  1  0
  2  4  1  0
  4  5  1  1
  5  6  1  0
  6  7  1  0
  7  8  2  0
  8  9  1  0
  9 10  1  0
 10 11  1  0
  9 12  2  0
 12 13  1  0
  4 14  1  0
 14 15  1  0
 14 16  2  0
 13  6  2  0
M  ISO  3   1   1   3   3  15   2
M  END
>  <symbol>  (365) 
Phe_4OMe

>  <m_abbr>  (365) 
Phe_4OMe

>  <m_name>  (365) 
L-4-Methoxyphenylalanine

>  <m_type>  (365) 
aa

>  <m_subtype>  (365) 
modified

>  <m_Rgroups>  (365) 
[H],[OH],[H]

>  <m_chem_types>  (365) 
1:backbone_n,2:backbone_c,3:backbone_n_mod

>  <m_activation_policy>  (365) 
canonical-sites-v1

$$$$

     RDKit          2D

 16 16  0  0  0  0  0  0  0  0999 V2000
   -3.4567    1.7873    0.0000 R   0  0  0  0  0  1  0  0  0  0  0  0
   -2.1102    1.1263    0.0000 N   0  0  0  0  0  0  0  0  0  0  0  0
   -0.8645    1.9620    0.0000 R   0  0  0  0  0  1  0  0  0  0  0  0
   -2.0094   -0.3703    0.0000 C   0  0  0  0  0  0  0  0  0  0  0  0
   -0.6629   -1.0313    0.0000 C   0  0  0  0  0  0  0  0  0  0  0  0
    0.5828   -0.1956    0.0000 C   0  0  0  0  0  0  0  0  0  0  0  0
    0.4820    1.3010    0.0000 C   0  0  0  0  0  0  0  0  0  0  0  0
    1.7277    2.1366    0.0000 C   0  0  0  0  0  0  0  0  0  0  0  0
    3.0742    1.4756    0.0000 C   0  0  0  0  0  0  0  0  0  0  0  0
    3.1750   -0.0210    0.0000 C   0  0  0  0  0  0  0  0  0  0  0  0
    4.5215   -0.6820    0.0000 O   0  0  0  0  0  0  0  0  0  0  0  0
    4.6223   -2.1786    0.0000 C   0  0  0  0  0  0  0  0  0  0  0  0
    1.9293   -0.8566    0.0000 C   0  0  0  0  0  0  0  0  0  0  0  0
   -3.2551   -1.2059    0.0000 C   0  0  0  0  0  0  0  0  0  0  0  0
   -4.6016   -0.5449    0.0000 R   0  0  0  0  0  1  0  0  0  0  0  0
   -3.1543   -2.7025    0.0000 O   0  0  0  0  0  0  0  0  0  0  0  0
  1  2  1  0
  2  3  1  0
  2  4  1  0
  4  5  1  1
  5  6  1  0
  6  7  1  0
  7  8  2  0
  8  9  1  0
  9 10  2  0
 10 11  1  0
 11 12  1  0
 10 13  1  0
  4 14  1  0
 14 15  1  0
 14 16  2  0
 13  6  2  0
M  ISO  3   1   1   3   3  15   2
M  END
>  <symbol>  (366) 
Phe_3OMe

>  <m_abbr>  (366) 
Phe_3OMe

>  <m_name>  (366) 
L-3-Methoxyphenylalanine

>  <m_type>  (366) 
aa

>  <m_subtype>  (366) 
modified

>  <m_Rgroups>  (366) 
[H],[OH],[H]

>  <m_chem_types>  (366) 
1:backbone_n,2:backbone_c,3:backbone_n_mod

>  <m_activation_policy>  (366) 
canonical-sites-v1

$$$$

     RDKit          2D

 16 16  0  0  0  0  0  0  0  0999 V2000
   -3.2946    1.8204    0.0000 R   0  0  0  0  0  1  0  0  0  0  0  0
   -1.9240    1.2109    0.0000 N   0  0  0  0  0  0  0  0  0  0  0  0
   -0.7108    2.0932    0.0000 R   0  0  0  0  0  1  0  0  0  0  0  0
   -1.7665   -0.2808    0.0000 C   0  0  0  0  0  0  0  0  0  0  0  0
   -0.3959   -0.8902    0.0000 C   0  0  0  0  0  0  0  0  0  0  0  0
    0.8173   -0.0080    0.0000 C   0  0  0  0  0  0  0  0  0  0  0  0
    0.6598    1.4837    0.0000 C   0  0  0  0  0  0  0  0  0  0  0  0
    1.8729    2.3660    0.0000 C   0  0  0  0  0  0  0  0  0  0  0  0
    3.2435    1.7565    0.0000 C   0  0  0  0  0  0  0  0  0  0  0  0
    3.4010    0.2648    0.0000 C   0  0  0  0  0  0  0  0  0  0  0  0
    2.1879   -0.6174    0.0000 C   0  0  0  0  0  0  0  0  0  0  0  0
    2.3454   -2.1092    0.0000 O   0  0  0  0  0  0  0  0  0  0  0  0
    3.7160   -2.7186    0.0000 C   0  0  0  0  0  0  0  0  0  0  0  0
   -2.9796   -1.1630    0.0000 C   0  0  0  0  0  0  0  0  0  0  0  0
   -4.3502   -0.5536    0.0000 R   0  0  0  0  0  1  0  0  0  0  0  0
   -2.8221   -2.6547    0.0000 O   0  0  0  0  0  0  0  0  0  0  0  0
  1  2  1  0
  2  3  1  0
  2  4  1  0
  4  5  1  1
  5  6  1  0
  6  7  2  0
  7  8  1  0
  8  9  2  0
  9 10  1  0
 10 11  2  0
 11 12  1  0
 12 13  1  0
  4 14  1  0
 14 15  1  0
 14 16  2  0
 11  6  1  0
M  ISO  3   1   1   3   3  15   2
M  END
>  <symbol>  (367) 
Phe_2OMe

>  <m_abbr>  (367) 
Phe_2OMe

>  <m_name>  (367) 
L-2-Methoxyphenylalanine

>  <m_type>  (367) 
aa

>  <m_subtype>  (367) 
modified

>  <m_Rgroups>  (367) 
[H],[OH],[H]

>  <m_chem_types>  (367) 
1:backbone_n,2:backbone_c,3:backbone_n_mod

>  <m_activation_policy>  (367) 
canonical-sites-v1

$$$$

     RDKit          2D

 15 15  0  0  0  0  0  0  0  0999 V2000
   -2.6971    2.1670    0.0000 R   0  0  0  0  0  1  0  0  0  0  0  0
   -1.4605    1.3179    0.0000 N   0  0  0  0  0  0  0  0  0  0  0  0
   -0.1069    1.9643    0.0000 R   0  0  0  0  0  1  0  0  0  0  0  0
   -1.5775   -0.1775    0.0000 C   0  0  0  0  0  0  0  0  0  0  0  0
   -0.3409   -1.0265    0.0000 C   0  0  0  0  0  0  0  0  0  0  0  0
    1.0127   -0.3802    0.0000 C   0  0  0  0  0  0  0  0  0  0  0  0
    1.1297    1.1153    0.0000 C   0  0  0  0  0  0  0  0  0  0  0  0
    2.4833    1.7617    0.0000 C   0  0  0  0  0  0  0  0  0  0  0  0
    3.7198    0.9126    0.0000 C   0  0  0  0  0  0  0  0  0  0  0  0
    3.6028   -0.5828    0.0000 C   0  0  0  0  0  0  0  0  0  0  0  0
    2.2492   -1.2292    0.0000 C   0  0  0  0  0  0  0  0  0  0  0  0
    2.1322   -2.7246    0.0000 Cl  0  0  0  0  0  0  0  0  0  0  0  0
   -2.9311   -0.8239    0.0000 C   0  0  0  0  0  0  0  0  0  0  0  0
   -4.1677    0.0252    0.0000 R   0  0  0  0  0  1  0  0  0  0  0  0
   -3.0481   -2.3193    0.0000 O   0  0  0  0  0  0  0  0  0  0  0  0
  1  2  1  0
  2  3  1  0
  2  4  1  0
  4  5  1  1
  5  6  1  0
  6  7  2  0
  7  8  1  0
  8  9  2  0
  9 10  1  0
 10 11  2  0
 11 12  1  0
  4 13  1  0
 13 14  1  0
 13 15  2  0
 11  6  1  0
M  ISO  3   1   1   3   3  14   2
M  END
>  <symbol>  (368) 
Phe_2Cl

>  <m_abbr>  (368) 
Phe_2Cl

>  <m_name>  (368) 
L-2-Chlorophenylalanine

>  <m_type>  (368) 
aa

>  <m_subtype>  (368) 
modified

>  <m_Rgroups>  (368) 
[H],[OH],[H]

>  <m_chem_types>  (368) 
1:backbone_n,2:backbone_c,3:backbone_n_mod

>  <m_activation_policy>  (368) 
canonical-sites-v1

$$$$

     RDKit          2D

 15 15  0  0  0  0  0  0  0  0999 V2000
   -2.6971    2.1670    0.0000 R   0  0  0  0  0  1  0  0  0  0  0  0
   -1.4605    1.3179    0.0000 N   0  0  0  0  0  0  0  0  0  0  0  0
   -0.1069    1.9643    0.0000 R   0  0  0  0  0  1  0  0  0  0  0  0
   -1.5775   -0.1775    0.0000 C   0  0  0  0  0  0  0  0  0  0  0  0
   -0.3409   -1.0265    0.0000 C   0  0  0  0  0  0  0  0  0  0  0  0
    1.0127   -0.3802    0.0000 C   0  0  0  0  0  0  0  0  0  0  0  0
    1.1297    1.1153    0.0000 C   0  0  0  0  0  0  0  0  0  0  0  0
    2.4833    1.7617    0.0000 C   0  0  0  0  0  0  0  0  0  0  0  0
    3.7198    0.9126    0.0000 C   0  0  0  0  0  0  0  0  0  0  0  0
    3.6028   -0.5828    0.0000 C   0  0  0  0  0  0  0  0  0  0  0  0
    2.2492   -1.2292    0.0000 C   0  0  0  0  0  0  0  0  0  0  0  0
    2.1322   -2.7246    0.0000 Br  0  0  0  0  0  0  0  0  0  0  0  0
   -2.9311   -0.8239    0.0000 C   0  0  0  0  0  0  0  0  0  0  0  0
   -4.1677    0.0252    0.0000 R   0  0  0  0  0  1  0  0  0  0  0  0
   -3.0481   -2.3193    0.0000 O   0  0  0  0  0  0  0  0  0  0  0  0
  1  2  1  0
  2  3  1  0
  2  4  1  0
  4  5  1  1
  5  6  1  0
  6  7  2  0
  7  8  1  0
  8  9  2  0
  9 10  1  0
 10 11  2  0
 11 12  1  0
  4 13  1  0
 13 14  1  0
 13 15  2  0
 11  6  1  0
M  ISO  3   1   1   3   3  14   2
M  END
>  <symbol>  (369) 
Phe_2Br

>  <m_abbr>  (369) 
Phe_2Br

>  <m_name>  (369) 
L-2-Bromophenylalanine

>  <m_type>  (369) 
aa

>  <m_subtype>  (369) 
modified

>  <m_Rgroups>  (369) 
[H],[OH],[H]

>  <m_chem_types>  (369) 
1:backbone_n,2:backbone_c,3:backbone_n_mod

>  <m_activation_policy>  (369) 
canonical-sites-v1

$$$$

     RDKit          2D

 15 15  0  0  0  0  0  0  0  0999 V2000
   -2.9107    2.0342    0.0000 R   0  0  0  0  0  1  0  0  0  0  0  0
   -1.6606    1.2052    0.0000 N   0  0  0  0  0  0  0  0  0  0  0  0
   -0.3176    1.8733    0.0000 R   0  0  0  0  0  1  0  0  0  0  0  0
   -1.7535   -0.2919    0.0000 C   0  0  0  0  0  0  0  0  0  0  0  0
   -0.5034   -1.1210    0.0000 C   0  0  0  0  0  0  0  0  0  0  0  0
    0.8396   -0.4529    0.0000 C   0  0  0  0  0  0  0  0  0  0  0  0
    0.9325    1.0442    0.0000 C   0  0  0  0  0  0  0  0  0  0  0  0
    2.2755    1.7123    0.0000 C   0  0  0  0  0  0  0  0  0  0  0  0
    3.5256    0.8833    0.0000 C   0  0  0  0  0  0  0  0  0  0  0  0
    3.4327   -0.6138    0.0000 C   0  0  0  0  0  0  0  0  0  0  0  0
    4.6828   -1.4428    0.0000 Br  0  0  0  0  0  0  0  0  0  0  0  0
    2.0897   -1.2819    0.0000 C   0  0  0  0  0  0  0  0  0  0  0  0
   -3.0965   -0.9600    0.0000 C   0  0  0  0  0  0  0  0  0  0  0  0
   -4.3466   -0.1310    0.0000 R   0  0  0  0  0  1  0  0  0  0  0  0
   -3.1894   -2.4572    0.0000 O   0  0  0  0  0  0  0  0  0  0  0  0
  1  2  1  0
  2  3  1  0
  2  4  1  0
  4  5  1  1
  5  6  1  0
  6  7  2  0
  7  8  1  0
  8  9  2  0
  9 10  1  0
 10 11  1  0
 10 12  2  0
  4 13  1  0
 13 14  1  0
 13 15  2  0
 12  6  1  0
M  ISO  3   1   1   3   3  14   2
M  END
>  <symbol>  (370) 
Phe_3Br

>  <m_abbr>  (370) 
Phe_3Br

>  <m_name>  (370) 
L-3-Bromophenylalanine

>  <m_type>  (370) 
aa

>  <m_subtype>  (370) 
modified

>  <m_Rgroups>  (370) 
[H],[OH],[H]

>  <m_chem_types>  (370) 
1:backbone_n,2:backbone_c,3:backbone_n_mod

>  <m_activation_policy>  (370) 
canonical-sites-v1

$$$$

     RDKit          2D

 16 16  0  0  0  0  0  0  0  0999 V2000
   -3.0766    2.1502    0.0000 R   0  0  0  0  0  1  0  0  0  0  0  0
   -1.8854    1.2385    0.0000 N   0  0  0  0  0  0  0  0  0  0  0  0
   -0.5003    1.8143    0.0000 R   0  0  0  0  0  1  0  0  0  0  0  0
   -2.0794   -0.2489    0.0000 C   0  0  0  0  0  0  0  0  0  0  0  0
   -0.8882   -1.1605    0.0000 C   0  0  0  0  0  0  0  0  0  0  0  0
    0.4969   -0.5848    0.0000 C   0  0  0  0  0  0  0  0  0  0  0  0
    0.6908    0.9026    0.0000 C   0  0  0  0  0  0  0  0  0  0  0  0
    2.0759    1.4784    0.0000 C   0  0  0  0  0  0  0  0  0  0  0  0
    3.2671    0.5667    0.0000 C   0  0  0  0  0  0  0  0  0  0  0  0
    4.6522    1.1425    0.0000 F   0  0  0  0  0  0  0  0  0  0  0  0
    3.0732   -0.9207    0.0000 C   0  0  0  0  0  0  0  0  0  0  0  0
    4.2643   -1.8323    0.0000 F   0  0  0  0  0  0  0  0  0  0  0  0
    1.6881   -1.4964    0.0000 C   0  0  0  0  0  0  0  0  0  0  0  0
   -3.4645   -0.8246    0.0000 C   0  0  0  0  0  0  0  0  0  0  0  0
   -4.6556    0.0870    0.0000 R   0  0  0  0  0  1  0  0  0  0  0  0
   -3.6584   -2.3121    0.0000 O   0  0  0  0  0  0  0  0  0  0  0  0
  1  2  1  0
  2  3  1  0
  2  4  1  0
  4  5  1  1
  5  6  1  0
  6  7  1  0
  7  8  2  0
  8  9  1  0
  9 10  1  0
  9 11  2  0
 11 12  1  0
 11 13  1  0
  4 14  1  0
 14 15  1  0
 14 16  2  0
 13  6  2  0
M  ISO  3   1   1   3   3  15   2
M  END
>  <symbol>  (371) 
Phe_34diF

>  <m_abbr>  (371) 
Phe_34diF

>  <m_name>  (371) 
L-3,4-Difluorophenylalanine

>  <m_type>  (371) 
aa

>  <m_subtype>  (371) 
modified

>  <m_Rgroups>  (371) 
[H],[OH],[H]

>  <m_chem_types>  (371) 
1:backbone_n,2:backbone_c,3:backbone_n_mod

>  <m_activation_policy>  (371) 
canonical-sites-v1

$$$$

     RDKit          2D

 16 16  0  0  0  0  0  0  0  0999 V2000
   -2.8846    2.0969    0.0000 R   0  0  0  0  0  1  0  0  0  0  0  0
   -1.7127    1.1606    0.0000 N   0  0  0  0  0  0  0  0  0  0  0  0
   -0.3159    1.7073    0.0000 R   0  0  0  0  0  1  0  0  0  0  0  0
   -1.9376   -0.3225    0.0000 C   0  0  0  0  0  0  0  0  0  0  0  0
   -0.7657   -1.2588    0.0000 C   0  0  0  0  0  0  0  0  0  0  0  0
    0.6311   -0.7121    0.0000 C   0  0  0  0  0  0  0  0  0  0  0  0
    0.8560    0.7710    0.0000 C   0  0  0  0  0  0  0  0  0  0  0  0
    2.2528    1.3177    0.0000 C   0  0  0  0  0  0  0  0  0  0  0  0
    2.4777    2.8007    0.0000 F   0  0  0  0  0  0  0  0  0  0  0  0
    3.4247    0.3814    0.0000 C   0  0  0  0  0  0  0  0  0  0  0  0
    3.1998   -1.1016    0.0000 C   0  0  0  0  0  0  0  0  0  0  0  0
    4.3717   -2.0380    0.0000 F   0  0  0  0  0  0  0  0  0  0  0  0
    1.8030   -1.6484    0.0000 C   0  0  0  0  0  0  0  0  0  0  0  0
   -3.3344   -0.8692    0.0000 C   0  0  0  0  0  0  0  0  0  0  0  0
   -4.5063    0.0671    0.0000 R   0  0  0  0  0  1  0  0  0  0  0  0
   -3.5594   -2.3522    0.0000 O   0  0  0  0  0  0  0  0  0  0  0  0
  1  2  1  0
  2  3  1  0
  2  4  1  0
  4  5  1  1
  5  6  1  0
  6  7  2  0
  7  8  1  0
  8  9  1  0
  8 10  2  0
 10 11  1  0
 11 12  1  0
 11 13  2  0
  4 14  1  0
 14 15  1  0
 14 16  2  0
 13  6  1  0
M  ISO  3   1   1   3   3  15   2
M  END
>  <symbol>  (372) 
Phe_35diF

>  <m_abbr>  (372) 
Phe_35diF

>  <m_name>  (372) 
L-3,5-Difluorophenylalanine

>  <m_type>  (372) 
aa

>  <m_subtype>  (372) 
modified

>  <m_Rgroups>  (372) 
[H],[OH],[H]

>  <m_chem_types>  (372) 
1:backbone_n,2:backbone_c,3:backbone_n_mod

>  <m_activation_policy>  (372) 
canonical-sites-v1

$$$$

     RDKit          2D

 16 16  0  0  0  0  0  0  0  0999 V2000
   -4.1591   -0.0957    0.0000 R   0  0  0  0  0  1  0  0  0  0  0  0
   -2.9189   -0.9394    0.0000 N   0  0  0  0  0  0  0  0  0  0  0  0
   -3.0295   -2.4354    0.0000 R   0  0  0  0  0  1  0  0  0  0  0  0
   -1.5681   -0.2873    0.0000 C   0  0  0  0  0  0  0  0  0  0  0  0
   -0.3279   -1.1311    0.0000 C   0  0  0  0  0  0  0  0  0  0  0  0
    1.0229   -0.4789    0.0000 C   0  0  0  0  0  0  0  0  0  0  0  0
    2.2631   -1.3227    0.0000 C   0  0  0  0  0  0  0  0  0  0  0  0
    2.1525   -2.8186    0.0000 F   0  0  0  0  0  0  0  0  0  0  0  0
    3.6139   -0.6705    0.0000 C   0  0  0  0  0  0  0  0  0  0  0  0
    3.7246    0.8254    0.0000 C   0  0  0  0  0  0  0  0  0  0  0  0
    2.4844    1.6692    0.0000 C   0  0  0  0  0  0  0  0  0  0  0  0
    1.1336    1.0170    0.0000 C   0  0  0  0  0  0  0  0  0  0  0  0
    0.3934    1.6657    0.0000 F   0  0  0  0  0  0  0  0  0  0  0  0
   -1.4574    1.2086    0.0000 C   0  0  0  0  0  0  0  0  0  0  0  0
   -2.6976    2.0524    0.0000 R   0  0  0  0  0  1  0  0  0  0  0  0
   -0.6299    1.7413    0.0000 O   0  0  0  0  0  0  0  0  0  0  0  0
  1  2  1  0
  2  3  1  0
  2  4  1  0
  4  5  1  6
  5  6  1  0
  6  7  2  0
  7  8  1  0
  7  9  1  0
  9 10  2  0
 10 11  1  0
 11 12  2  0
 12 13  1  0
  4 14  1  0
 14 15  1  0
 14 16  2  0
 12  6  1  0
M  ISO  3   1   1   3   3  15   2
M  END
>  <symbol>  (373) 
Phe_26diF

>  <m_abbr>  (373) 
Phe_26diF

>  <m_name>  (373) 
L-2,6-Difluorophenylalanine

>  <m_type>  (373) 
aa

>  <m_subtype>  (373) 
modified

>  <m_Rgroups>  (373) 
[H],[OH],[H]

>  <m_chem_types>  (373) 
1:backbone_n,2:backbone_c,3:backbone_n_mod

>  <m_activation_policy>  (373) 
canonical-sites-v1

$$$$

     RDKit          2D

 16 16  0  0  0  0  0  0  0  0999 V2000
   -2.8172    2.3306    0.0000 R   0  0  0  0  0  1  0  0  0  0  0  0
   -1.6614    1.3745    0.0000 N   0  0  0  0  0  0  0  0  0  0  0  0
   -0.2555    1.8973    0.0000 R   0  0  0  0  0  1  0  0  0  0  0  0
   -1.9116   -0.1045    0.0000 C   0  0  0  0  0  0  0  0  0  0  0  0
   -0.7558   -1.0607    0.0000 C   0  0  0  0  0  0  0  0  0  0  0  0
    0.6501   -0.5378    0.0000 C   0  0  0  0  0  0  0  0  0  0  0  0
    0.9003    0.9412    0.0000 C   0  0  0  0  0  0  0  0  0  0  0  0
    2.3062    1.4640    0.0000 C   0  0  0  0  0  0  0  0  0  0  0  0
    3.4620    0.5078    0.0000 C   0  0  0  0  0  0  0  0  0  0  0  0
    4.8679    1.0307    0.0000 F   0  0  0  0  0  0  0  0  0  0  0  0
    3.2118   -0.9711    0.0000 C   0  0  0  0  0  0  0  0  0  0  0  0
    1.8059   -1.4940    0.0000 C   0  0  0  0  0  0  0  0  0  0  0  0
    1.5557   -2.9730    0.0000 F   0  0  0  0  0  0  0  0  0  0  0  0
   -3.3175   -0.6274    0.0000 C   0  0  0  0  0  0  0  0  0  0  0  0
   -4.4733    0.3288    0.0000 R   0  0  0  0  0  1  0  0  0  0  0  0
   -3.5677   -2.1064    0.0000 O   0  0  0  0  0  0  0  0  0  0  0  0
  1  2  1  0
  2  3  1  0
  2  4  1  0
  4  5  1  1
  5  6  1  0
  6  7  1  0
  7  8  2  0
  8  9  1  0
  9 10  1  0
  9 11  2  0
 11 12  1  0
 12 13  1  0
  4 14  1  0
 14 15  1  0
 14 16  2  0
 12  6  2  0
M  ISO  3   1   1   3   3  15   2
M  END
>  <symbol>  (374) 
Phe_24diF

>  <m_abbr>  (374) 
Phe_24diF

>  <m_name>  (374) 
L-2,4-Difluorophenylalanine

>  <m_type>  (374) 
aa

>  <m_subtype>  (374) 
modified

>  <m_Rgroups>  (374) 
[H],[OH],[H]

>  <m_chem_types>  (374) 
1:backbone_n,2:backbone_c,3:backbone_n_mod

>  <m_activation_policy>  (374) 
canonical-sites-v1

$$$$

     RDKit          2D

 18 18  0  0  0  0  0  0  0  0999 V2000
   -3.3850    2.3467    0.0000 R   0  0  0  0  0  1  0  0  0  0  0  0
   -2.3401    1.2705    0.0000 N   0  0  0  0  0  0  0  0  0  0  0  0
   -0.8856    1.6374    0.0000 R   0  0  0  0  0  1  0  0  0  0  0  0
   -2.7496   -0.1725    0.0000 C   0  0  0  0  0  0  0  0  0  0  0  0
   -1.7047   -1.2487    0.0000 C   0  0  0  0  0  0  0  0  0  0  0  0
   -0.2503   -0.8818    0.0000 C   0  0  0  0  0  0  0  0  0  0  0  0
    0.1593    0.5612    0.0000 C   0  0  0  0  0  0  0  0  0  0  0  0
    1.6137    0.9280    0.0000 C   0  0  0  0  0  0  0  0  0  0  0  0
    2.6586   -0.1482    0.0000 C   0  0  0  0  0  0  0  0  0  0  0  0
    4.1131    0.2186    0.0000 C   0  0  0  0  0  0  0  0  0  0  0  0
    4.4799   -1.2358    0.0000 C   0  0  0  0  0  0  0  0  0  0  0  0
    3.7463    1.6731    0.0000 C   0  0  0  0  0  0  0  0  0  0  0  0
    5.5675    0.5855    0.0000 C   0  0  0  0  0  0  0  0  0  0  0  0
    2.2491   -1.5912    0.0000 C   0  0  0  0  0  0  0  0  0  0  0  0
    0.7946   -1.9580    0.0000 C   0  0  0  0  0  0  0  0  0  0  0  0
   -4.2041   -0.5393    0.0000 C   0  0  0  0  0  0  0  0  0  0  0  0
   -5.2490    0.5369    0.0000 R   0  0  0  0  0  1  0  0  0  0  0  0
   -4.6136   -1.9823    0.0000 O   0  0  0  0  0  0  0  0  0  0  0  0
  1  2  1  0
  2  3  1  0
  2  4  1  0
  4  5  1  1
  5  6  1  0
  6  7  1  0
  7  8  2  0
  8  9  1  0
  9 10  1  0
 10 11  1  0
 10 12  1  0
 10 13  1  0
  9 14  2  0
 14 15  1  0
  4 16  1  0
 16 17  1  0
 16 18  2  0
 15  6  2  0
M  ISO  3   1   1   3   3  17   2
M  END
>  <symbol>  (375) 
Phe_4tBu

>  <m_abbr>  (375) 
Phe_4tBu

>  <m_name>  (375) 
L-4-tert-Butylphenylalanine

>  <m_type>  (375) 
aa

>  <m_subtype>  (375) 
modified

>  <m_Rgroups>  (375) 
[H],[OH],[H]

>  <m_chem_types>  (375) 
1:backbone_n,2:backbone_c,3:backbone_n_mod

>  <m_activation_policy>  (375) 
canonical-sites-v1

$$$$

     RDKit          2D

 19 19  0  0  0  0  0  0  0  0999 V2000
    4.8248    0.0680    0.0000 R   0  0  0  0  0  1  0  0  0  0  0  0
    3.6449   -0.8582    0.0000 N   0  0  0  0  0  0  0  0  0  0  0  0
    3.8570   -2.3431    0.0000 R   0  0  0  0  0  1  0  0  0  0  0  0
    2.2528   -0.2994    0.0000 C   0  0  0  0  0  0  0  0  0  0  0  0
    1.0729   -1.2256    0.0000 C   0  0  0  0  0  0  0  0  0  0  0  0
   -0.3191   -0.6668    0.0000 C   0  0  0  0  0  0  0  0  0  0  0  0
   -1.4991   -1.5930    0.0000 C   0  0  0  0  0  0  0  0  0  0  0  0
   -1.2870   -3.0779    0.0000 F   0  0  0  0  0  0  0  0  0  0  0  0
   -2.8911   -1.0342    0.0000 C   0  0  0  0  0  0  0  0  0  0  0  0
   -4.0710   -1.9603    0.0000 F   0  0  0  0  0  0  0  0  0  0  0  0
   -3.1032    0.4507    0.0000 C   0  0  0  0  0  0  0  0  0  0  0  0
   -4.4953    1.0095    0.0000 F   0  0  0  0  0  0  0  0  0  0  0  0
   -1.9233    1.3769    0.0000 C   0  0  0  0  0  0  0  0  0  0  0  0
   -2.1354    2.8618    0.0000 F   0  0  0  0  0  0  0  0  0  0  0  0
   -0.5312    0.8181    0.0000 C   0  0  0  0  0  0  0  0  0  0  0  0
    0.1631    1.5156    0.0000 F   0  0  0  0  0  0  0  0  0  0  0  0
    2.0407    1.1855    0.0000 C   0  0  0  0  0  0  0  0  0  0  0  0
    3.2207    2.1117    0.0000 R   0  0  0  0  0  1  0  0  0  0  0  0
    1.1789    1.6607    0.0000 O   0  0  0  0  0  0  0  0  0  0  0  0
  1  2  1  0
  2  3  1  0
  2  4  1  0
  4  5  1  1
  5  6  1  0
  6  7  2  0
  7  8  1  0
  7  9  1  0
  9 10  1  0
  9 11  2  0
 11 12  1  0
 11 13  1  0
 13 14  1  0
 13 15  2  0
 15 16  1  0
  4 17  1  0
 17 18  1  0
 17 19  2  0
 15  6  1  0
M  ISO  3   1   1   3   3  18   2
M  END
>  <symbol>  (376) 
Phe_F5

>  <m_abbr>  (376) 
Phe_F5

>  <m_name>  (376) 
L-Pentafluorophenylalanine

>  <m_type>  (376) 
aa

>  <m_subtype>  (376) 
modified

>  <m_Rgroups>  (376) 
[H],[OH],[H]

>  <m_chem_types>  (376) 
1:backbone_n,2:backbone_c,3:backbone_n_mod

>  <m_activation_policy>  (376) 
canonical-sites-v1

$$$$

     RDKit          2D

 17 17  0  0  0  0  0  0  0  0999 V2000
   -3.1584    2.3389    0.0000 R   0  0  0  0  0  1  0  0  0  0  0  0
   -2.1065    1.2696    0.0000 N   0  0  0  0  0  0  0  0  0  0  0  0
   -0.6545    1.6460    0.0000 R   0  0  0  0  0  1  0  0  0  0  0  0
   -2.5066   -0.1760    0.0000 C   0  0  0  0  0  0  0  0  0  0  0  0
   -1.4547   -1.2454    0.0000 C   0  0  0  0  0  0  0  0  0  0  0  0
   -0.0026   -0.8690    0.0000 C   0  0  0  0  0  0  0  0  0  0  0  0
    0.3974    0.5766    0.0000 C   0  0  0  0  0  0  0  0  0  0  0  0
    1.8495    0.9530    0.0000 C   0  0  0  0  0  0  0  0  0  0  0  0
    2.9014   -0.1163    0.0000 C   0  0  0  0  0  0  0  0  0  0  0  0
    4.3534    0.2600    0.0000 C   0  0  0  0  0  0  0  0  0  0  0  0
    5.4054   -0.8093    0.0000 C   0  0  0  0  0  0  0  0  0  0  0  0
    4.7535    1.7057    0.0000 O   0  0  0  0  0  0  0  0  0  0  0  0
    2.5013   -1.5620    0.0000 C   0  0  0  0  0  0  0  0  0  0  0  0
    1.0493   -1.9383    0.0000 C   0  0  0  0  0  0  0  0  0  0  0  0
   -3.9586   -0.5524    0.0000 C   0  0  0  0  0  0  0  0  0  0  0  0
   -5.0106    0.5169    0.0000 R   0  0  0  0  0  1  0  0  0  0  0  0
   -4.3587   -1.9980    0.0000 O   0  0  0  0  0  0  0  0  0  0  0  0
  1  2  1  0
  2  3  1  0
  2  4  1  0
  4  5  1  1
  5  6  1  0
  6  7  1  0
  7  8  2  0
  8  9  1  0
  9 10  1  0
 10 11  1  0
 10 12  2  0
  9 13  2  0
 13 14  1  0
  4 15  1  0
 15 16  1  0
 15 17  2  0
 14  6  2  0
M  ISO  3   1   1   3   3  16   2
M  END
>  <symbol>  (377) 
Phe_4Ac

>  <m_abbr>  (377) 
Phe_4Ac

>  <m_name>  (377) 
L-4-Acetylphenylalanine

>  <m_type>  (377) 
aa

>  <m_subtype>  (377) 
modified

>  <m_Rgroups>  (377) 
[H],[OH],[H]

>  <m_chem_types>  (377) 
1:backbone_n,2:backbone_c,3:backbone_n_mod

>  <m_activation_policy>  (377) 
canonical-sites-v1

$$$$

     RDKit          2D

 17 17  0  0  0  0  0  0  0  0999 V2000
   -3.4693    1.8019    0.0000 R   0  0  0  0  0  1  0  0  0  0  0  0
   -2.0662    1.2714    0.0000 N   0  0  0  0  0  0  0  0  0  0  0  0
   -0.9053    2.2212    0.0000 R   0  0  0  0  0  1  0  0  0  0  0  0
   -1.8241   -0.2089    0.0000 C   0  0  0  0  0  0  0  0  0  0  0  0
   -0.4211   -0.7394    0.0000 C   0  0  0  0  0  0  0  0  0  0  0  0
    0.7399    0.2104    0.0000 C   0  0  0  0  0  0  0  0  0  0  0  0
    0.4978    1.6907    0.0000 C   0  0  0  0  0  0  0  0  0  0  0  0
    1.6587    2.6406    0.0000 C   0  0  0  0  0  0  0  0  0  0  0  0
    3.0618    2.1101    0.0000 C   0  0  0  0  0  0  0  0  0  0  0  0
    3.3039    0.6297    0.0000 C   0  0  0  0  0  0  0  0  0  0  0  0
    2.1429   -0.3201    0.0000 C   0  0  0  0  0  0  0  0  0  0  0  0
    2.3850   -1.8004    0.0000 N   0  0  0  0  0  0  0  0  0  0  0  0
    1.2241   -2.7503    0.0000 O   0  0  0  0  0  0  0  0  0  0  0  0
    3.7881   -2.3309    0.0000 O   0  0  0  0  0  0  0  0  0  0  0  0
   -2.9851   -1.1587    0.0000 C   0  0  0  0  0  0  0  0  0  0  0  0
   -4.3881   -0.6282    0.0000 R   0  0  0  0  0  1  0  0  0  0  0  0
   -2.7430   -2.6391    0.0000 O   0  0  0  0  0  0  0  0  0  0  0  0
  1  2  1  0
  2  3  1  0
  2  4  1  0
  4  5  1  1
  5  6  1  0
  6  7  2  0
  7  8  1  0
  8  9  2  0
  9 10  1  0
 10 11  2  0
 11 12  1  0
 12 13  2  0
 12 14  1  0
  4 15  1  0
 15 16  1  0
 15 17  2  0
 11  6  1  0
M  CHG  2  12   1  14  -1
M  ISO  3   1   1   3   3  16   2
M  END
>  <symbol>  (378) 
Phe_2NO2

>  <m_abbr>  (378) 
Phe_2NO2

>  <m_name>  (378) 
L-2-Nitrophenylalanine

>  <m_type>  (378) 
aa

>  <m_subtype>  (378) 
modified

>  <m_Rgroups>  (378) 
[H],[OH],[H]

>  <m_chem_types>  (378) 
1:backbone_n,2:backbone_c,3:backbone_n_mod

>  <m_activation_policy>  (378) 
canonical-sites-v1

$$$$

     RDKit          2D

 17 17  0  0  0  0  0  0  0  0999 V2000
   -3.7845    1.8026    0.0000 R   0  0  0  0  0  1  0  0  0  0  0  0
   -2.4423    1.1330    0.0000 N   0  0  0  0  0  0  0  0  0  0  0  0
   -1.1912    1.9606    0.0000 R   0  0  0  0  0  1  0  0  0  0  0  0
   -2.3510   -0.3643    0.0000 C   0  0  0  0  0  0  0  0  0  0  0  0
   -1.0088   -1.0339    0.0000 C   0  0  0  0  0  0  0  0  0  0  0  0
    0.2422   -0.2062    0.0000 C   0  0  0  0  0  0  0  0  0  0  0  0
    0.1510    1.2910    0.0000 C   0  0  0  0  0  0  0  0  0  0  0  0
    1.4020    2.1186    0.0000 C   0  0  0  0  0  0  0  0  0  0  0  0
    2.7443    1.4490    0.0000 C   0  0  0  0  0  0  0  0  0  0  0  0
    2.8355   -0.0482    0.0000 C   0  0  0  0  0  0  0  0  0  0  0  0
    4.1778   -0.7178    0.0000 N   0  0  0  0  0  0  0  0  0  0  0  0
    5.4288    0.1098    0.0000 O   0  0  0  0  0  0  0  0  0  0  0  0
    4.2690   -2.2150    0.0000 O   0  0  0  0  0  0  0  0  0  0  0  0
    1.5845   -0.8758    0.0000 C   0  0  0  0  0  0  0  0  0  0  0  0
   -3.6020   -1.1919    0.0000 C   0  0  0  0  0  0  0  0  0  0  0  0
   -4.9443   -0.5223    0.0000 R   0  0  0  0  0  1  0  0  0  0  0  0
   -3.5108   -2.6891    0.0000 O   0  0  0  0  0  0  0  0  0  0  0  0
  1  2  1  0
  2  3  1  0
  2  4  1  0
  4  5  1  1
  5  6  1  0
  6  7  1  0
  7  8  2  0
  8  9  1  0
  9 10  2  0
 10 11  1  0
 11 12  2  0
 11 13  1  0
 10 14  1  0
  4 15  1  0
 15 16  1  0
 15 17  2  0
 14  6  2  0
M  CHG  2  11   1  13  -1
M  ISO  3   1   1   3   3  16   2
M  END
>  <symbol>  (379) 
Phe_3NO2

>  <m_abbr>  (379) 
Phe_3NO2

>  <m_name>  (379) 
L-3-Nitrophenylalanine

>  <m_type>  (379) 
aa

>  <m_subtype>  (379) 
modified

>  <m_Rgroups>  (379) 
[H],[OH],[H]

>  <m_chem_types>  (379) 
1:backbone_n,2:backbone_c,3:backbone_n_mod

>  <m_activation_policy>  (379) 
canonical-sites-v1

$$$$

     RDKit          2D

 16 16  0  0  0  0  0  0  0  0999 V2000
   -3.4567    1.7873    0.0000 R   0  0  0  0  0  1  0  0  0  0  0  0
   -2.1102    1.1263    0.0000 N   0  0  0  0  0  0  0  0  0  0  0  0
   -0.8645    1.9620    0.0000 R   0  0  0  0  0  1  0  0  0  0  0  0
   -2.0094   -0.3703    0.0000 C   0  0  0  0  0  0  0  0  0  0  0  0
   -0.6629   -1.0313    0.0000 C   0  0  0  0  0  0  0  0  0  0  0  0
    0.5828   -0.1956    0.0000 C   0  0  0  0  0  0  0  0  0  0  0  0
    0.4820    1.3010    0.0000 C   0  0  0  0  0  0  0  0  0  0  0  0
    1.7277    2.1366    0.0000 C   0  0  0  0  0  0  0  0  0  0  0  0
    3.0742    1.4756    0.0000 C   0  0  0  0  0  0  0  0  0  0  0  0
    3.1750   -0.0210    0.0000 C   0  0  0  0  0  0  0  0  0  0  0  0
    4.5215   -0.6820    0.0000 O   0  0  0  0  0  0  0  0  0  0  0  0
    4.6223   -2.1786    0.0000 R   0  0  0  0  0  1  0  0  0  0  0  0
    1.9293   -0.8566    0.0000 C   0  0  0  0  0  0  0  0  0  0  0  0
   -3.2551   -1.2059    0.0000 C   0  0  0  0  0  0  0  0  0  0  0  0
   -4.6016   -0.5449    0.0000 R   0  0  0  0  0  1  0  0  0  0  0  0
   -3.1543   -2.7025    0.0000 O   0  0  0  0  0  0  0  0  0  0  0  0
  1  2  1  0
  2  3  1  0
  2  4  1  0
  4  5  1  1
  5  6  1  0
  6  7  1  0
  7  8  2  0
  8  9  1  0
  9 10  2  0
 10 11  1  0
 11 12  1  0
 10 13  1  0
  4 14  1  0
 14 15  1  0
 14 16  2  0
 13  6  2  0
M  ISO  4   1   1   3   3  12   4  15   2
M  END
>  <symbol>  (380) 
Phe_3OH

>  <m_abbr>  (380) 
Phe_3OH

>  <m_name>  (380) 
L-3-Hydroxyphenylalanine

>  <m_type>  (380) 
aa

>  <m_subtype>  (380) 
modified

>  <m_Rgroups>  (380) 
[H],[OH],[H],[H]

>  <m_chem_types>  (380) 
1:backbone_n,2:backbone_c,3:backbone_n_mod,4:aryl_phenol_o

>  <m_activation_policy>  (380) 
canonical-sites-v1

$$$$

     RDKit          2D

 15 15  0  0  0  0  0  0  0  0999 V2000
   -3.9151   -1.6710    0.0000 R   0  0  0  0  0  1  0  0  0  0  0  0
   -2.4580   -1.3145    0.0000 N   0  0  0  0  0  0  0  0  0  0  0  0
   -1.4208   -2.3982    0.0000 R   0  0  0  0  0  1  0  0  0  0  0  0
   -2.0382    0.1255    0.0000 C   0  0  0  0  0  0  0  0  0  0  0  0
   -0.5812    0.4819    0.0000 C   0  0  0  0  0  0  0  0  0  0  0  0
    0.4560   -0.6017    0.0000 C   0  0  0  0  0  0  0  0  0  0  0  0
    1.9131   -0.2453    0.0000 C   0  0  0  0  0  0  0  0  0  0  0  0
    2.3329    1.1948    0.0000 C   0  0  0  0  0  0  0  0  0  0  0  0
    3.7900    1.5512    0.0000 C   0  0  0  0  0  0  0  0  0  0  0  0
    4.8271    0.4676    0.0000 C   0  0  0  0  0  0  0  0  0  0  0  0
    4.4073   -0.9725    0.0000 C   0  0  0  0  0  0  0  0  0  0  0  0
    2.9503   -1.3289    0.0000 C   0  0  0  0  0  0  0  0  0  0  0  0
   -3.0754    1.2091    0.0000 C   0  0  0  0  0  0  0  0  0  0  0  0
   -4.5324    0.8527    0.0000 R   0  0  0  0  0  1  0  0  0  0  0  0
   -2.6556    2.6492    0.0000 O   0  0  0  0  0  0  0  0  0  0  0  0
  1  2  1  0
  2  3  1  0
  2  4  1  0
  4  5  1  6
  5  6  1  0
  6  7  1  0
  7  8  2  0
  8  9  1  0
  9 10  2  0
 10 11  1  0
 11 12  2  0
  4 13  1  0
 13 14  1  0
 13 15  2  0
 12  7  1  0
M  ISO  3   1   1   3   3  14   2
M  END
>  <symbol>  (381) 
hPhe2

>  <m_abbr>  (381) 
hPhe2

>  <m_name>  (381) 
L-Homophenylalanine (2-amino-4-phenylbutanoic acid)

>  <m_type>  (381) 
aa

>  <m_subtype>  (381) 
modified

>  <m_Rgroups>  (381) 
[H],[OH],[H]

>  <m_chem_types>  (381) 
1:backbone_n,2:backbone_c,3:backbone_n_mod

>  <m_activation_policy>  (381) 
canonical-sites-v1

$$$$

     RDKit          2D

 19 20  0  0  0  0  0  0  0  0999 V2000
   -4.2475   -1.6475    0.0000 R   0  0  0  0  0  1  0  0  0  0  0  0
   -2.8651   -1.0651    0.0000 N   0  0  0  0  0  0  0  0  0  0  0  0
   -1.6696   -1.9710    0.0000 R   0  0  0  0  0  1  0  0  0  0  0  0
   -2.6783    0.4232    0.0000 C   0  0  0  0  0  0  0  0  0  0  0  0
   -1.2960    1.0056    0.0000 C   0  0  0  0  0  0  0  0  0  0  0  0
   -0.1005    0.0997    0.0000 C   0  0  0  0  0  0  0  0  0  0  0  0
   -0.1307   -1.4000    0.0000 C   0  0  0  0  0  0  0  0  0  0  0  0
    1.2863   -1.8921    0.0000 N   0  0  0  0  0  0  0  0  0  0  0  0
    1.7210   -3.3278    0.0000 R   0  0  0  0  0  1  0  0  0  0  0  0
    2.1922   -0.6966    0.0000 C   0  0  0  0  0  0  0  0  0  0  0  0
    3.6868   -0.5699    0.0000 C   0  0  0  0  0  0  0  0  0  0  0  0
    4.3244    0.7879    0.0000 C   0  0  0  0  0  0  0  0  0  0  0  0
    5.8190    0.9146    0.0000 F   0  0  0  0  0  0  0  0  0  0  0  0
    3.4673    2.0189    0.0000 C   0  0  0  0  0  0  0  0  0  0  0  0
    1.9727    1.8922    0.0000 C   0  0  0  0  0  0  0  0  0  0  0  0
    1.3351    0.5344    0.0000 C   0  0  0  0  0  0  0  0  0  0  0  0
   -3.8739    1.3292    0.0000 C   0  0  0  0  0  0  0  0  0  0  0  0
   -5.2562    0.7468    0.0000 R   0  0  0  0  0  1  0  0  0  0  0  0
   -3.6871    2.8175    0.0000 O   0  0  0  0  0  0  0  0  0  0  0  0
  1  2  1  0
  2  3  1  0
  2  4  1  0
  4  5  1  6
  5  6  1  0
  6  7  2  0
  7  8  1  0
  8  9  1  0
  8 10  1  0
 10 11  1  0
 11 12  2  0
 12 13  1  0
 12 14  1  0
 14 15  2  0
 15 16  1  0
  4 17  1  0
 17 18  1  0
 17 19  2  0
 16  6  1  0
 16 10  2  0
M  ISO  4   1   1   3   3   9   4  18   2
M  END
>  <symbol>  (382) 
Trp_5F

>  <m_abbr>  (382) 
Trp_5F

>  <m_name>  (382) 
L-5-Fluorotryptophan

>  <m_type>  (382) 
aa

>  <m_subtype>  (382) 
modified

>  <m_Rgroups>  (382) 
[H],[OH],[H],[H]

>  <m_chem_types>  (382) 
1:backbone_n,2:backbone_c,3:backbone_n_mod,4:aromatic_nh

>  <m_activation_policy>  (382) 
canonical-sites-v1

$$$$

     RDKit          2D

 19 20  0  0  0  0  0  0  0  0999 V2000
   -4.2475   -1.6475    0.0000 R   0  0  0  0  0  1  0  0  0  0  0  0
   -2.8651   -1.0651    0.0000 N   0  0  0  0  0  0  0  0  0  0  0  0
   -1.6696   -1.9710    0.0000 R   0  0  0  0  0  1  0  0  0  0  0  0
   -2.6783    0.4232    0.0000 C   0  0  0  0  0  0  0  0  0  0  0  0
   -1.2960    1.0056    0.0000 C   0  0  0  0  0  0  0  0  0  0  0  0
   -0.1005    0.0997    0.0000 C   0  0  0  0  0  0  0  0  0  0  0  0
   -0.1307   -1.4000    0.0000 C   0  0  0  0  0  0  0  0  0  0  0  0
    1.2863   -1.8921    0.0000 N   0  0  0  0  0  0  0  0  0  0  0  0
    1.7210   -3.3278    0.0000 R   0  0  0  0  0  1  0  0  0  0  0  0
    2.1922   -0.6966    0.0000 C   0  0  0  0  0  0  0  0  0  0  0  0
    3.6868   -0.5699    0.0000 C   0  0  0  0  0  0  0  0  0  0  0  0
    4.3244    0.7879    0.0000 C   0  0  0  0  0  0  0  0  0  0  0  0
    5.8190    0.9146    0.0000 C   0  0  0  0  0  0  0  0  0  0  0  0
    3.4673    2.0189    0.0000 C   0  0  0  0  0  0  0  0  0  0  0  0
    1.9727    1.8922    0.0000 C   0  0  0  0  0  0  0  0  0  0  0  0
    1.3351    0.5344    0.0000 C   0  0  0  0  0  0  0  0  0  0  0  0
   -3.8739    1.3292    0.0000 C   0  0  0  0  0  0  0  0  0  0  0  0
   -5.2562    0.7468    0.0000 R   0  0  0  0  0  1  0  0  0  0  0  0
   -3.6871    2.8175    0.0000 O   0  0  0  0  0  0  0  0  0  0  0  0
  1  2  1  0
  2  3  1  0
  2  4  1  0
  4  5  1  6
  5  6  1  0
  6  7  2  0
  7  8  1  0
  8  9  1  0
  8 10  1  0
 10 11  1  0
 11 12  2  0
 12 13  1  0
 12 14  1  0
 14 15  2  0
 15 16  1  0
  4 17  1  0
 17 18  1  0
 17 19  2  0
 16  6  1  0
 16 10  2  0
M  ISO  4   1   1   3   3   9   4  18   2
M  END
>  <symbol>  (383) 
Trp_5Me

>  <m_abbr>  (383) 
Trp_5Me

>  <m_name>  (383) 
L-5-Methyltryptophan

>  <m_type>  (383) 
aa

>  <m_subtype>  (383) 
modified

>  <m_Rgroups>  (383) 
[H],[OH],[H],[H]

>  <m_chem_types>  (383) 
1:backbone_n,2:backbone_c,3:backbone_n_mod,4:aromatic_nh

>  <m_activation_policy>  (383) 
canonical-sites-v1

$$$$

     RDKit          2D

 19 20  0  0  0  0  0  0  0  0999 V2000
   -4.2475   -1.6475    0.0000 R   0  0  0  0  0  1  0  0  0  0  0  0
   -2.8651   -1.0651    0.0000 N   0  0  0  0  0  0  0  0  0  0  0  0
   -1.6696   -1.9710    0.0000 R   0  0  0  0  0  1  0  0  0  0  0  0
   -2.6783    0.4232    0.0000 C   0  0  0  0  0  0  0  0  0  0  0  0
   -1.2960    1.0056    0.0000 C   0  0  0  0  0  0  0  0  0  0  0  0
   -0.1005    0.0997    0.0000 C   0  0  0  0  0  0  0  0  0  0  0  0
   -0.1307   -1.4000    0.0000 C   0  0  0  0  0  0  0  0  0  0  0  0
    1.2863   -1.8921    0.0000 N   0  0  0  0  0  0  0  0  0  0  0  0
    1.7210   -3.3278    0.0000 R   0  0  0  0  0  1  0  0  0  0  0  0
    2.1922   -0.6966    0.0000 C   0  0  0  0  0  0  0  0  0  0  0  0
    3.6868   -0.5699    0.0000 C   0  0  0  0  0  0  0  0  0  0  0  0
    4.3244    0.7879    0.0000 C   0  0  0  0  0  0  0  0  0  0  0  0
    5.8190    0.9146    0.0000 Br  0  0  0  0  0  0  0  0  0  0  0  0
    3.4673    2.0189    0.0000 C   0  0  0  0  0  0  0  0  0  0  0  0
    1.9727    1.8922    0.0000 C   0  0  0  0  0  0  0  0  0  0  0  0
    1.3351    0.5344    0.0000 C   0  0  0  0  0  0  0  0  0  0  0  0
   -3.8739    1.3292    0.0000 C   0  0  0  0  0  0  0  0  0  0  0  0
   -5.2562    0.7468    0.0000 R   0  0  0  0  0  1  0  0  0  0  0  0
   -3.6871    2.8175    0.0000 O   0  0  0  0  0  0  0  0  0  0  0  0
  1  2  1  0
  2  3  1  0
  2  4  1  0
  4  5  1  6
  5  6  1  0
  6  7  2  0
  7  8  1  0
  8  9  1  0
  8 10  1  0
 10 11  1  0
 11 12  2  0
 12 13  1  0
 12 14  1  0
 14 15  2  0
 15 16  1  0
  4 17  1  0
 17 18  1  0
 17 19  2  0
 16  6  1  0
 16 10  2  0
M  ISO  4   1   1   3   3   9   4  18   2
M  END
>  <symbol>  (384) 
Trp_5Br

>  <m_abbr>  (384) 
Trp_5Br

>  <m_name>  (384) 
L-5-Bromotryptophan

>  <m_type>  (384) 
aa

>  <m_subtype>  (384) 
modified

>  <m_Rgroups>  (384) 
[H],[OH],[H],[H]

>  <m_chem_types>  (384) 
1:backbone_n,2:backbone_c,3:backbone_n_mod,4:aromatic_nh

>  <m_activation_policy>  (384) 
canonical-sites-v1

$$$$

     RDKit          2D

 20 21  0  0  0  0  0  0  0  0999 V2000
   -4.5632   -1.6816    0.0000 R   0  0  0  0  0  1  0  0  0  0  0  0
   -3.1873   -1.0842    0.0000 N   0  0  0  0  0  0  0  0  0  0  0  0
   -1.9819   -1.9770    0.0000 R   0  0  0  0  0  1  0  0  0  0  0  0
   -3.0168    0.4061    0.0000 C   0  0  0  0  0  0  0  0  0  0  0  0
   -1.6409    1.0036    0.0000 C   0  0  0  0  0  0  0  0  0  0  0  0
   -0.4355    0.1108    0.0000 C   0  0  0  0  0  0  0  0  0  0  0  0
   -0.4493   -1.3892    0.0000 C   0  0  0  0  0  0  0  0  0  0  0  0
    0.9729   -1.8658    0.0000 N   0  0  0  0  0  0  0  0  0  0  0  0
    1.4233   -3.2966    0.0000 R   0  0  0  0  0  1  0  0  0  0  0  0
    1.8657   -0.6604    0.0000 C   0  0  0  0  0  0  0  0  0  0  0  0
    3.3589   -0.5174    0.0000 C   0  0  0  0  0  0  0  0  0  0  0  0
    3.9816    0.8472    0.0000 C   0  0  0  0  0  0  0  0  0  0  0  0
    5.4747    0.9903    0.0000 O   0  0  0  0  0  0  0  0  0  0  0  0
    6.3452   -0.2313    0.0000 C   0  0  0  0  0  0  0  0  0  0  0  0
    3.1111    2.0688    0.0000 C   0  0  0  0  0  0  0  0  0  0  0  0
    1.6180    1.9258    0.0000 C   0  0  0  0  0  0  0  0  0  0  0  0
    0.9953    0.5611    0.0000 C   0  0  0  0  0  0  0  0  0  0  0  0
   -4.2221    1.2989    0.0000 C   0  0  0  0  0  0  0  0  0  0  0  0
   -5.5980    0.7015    0.0000 R   0  0  0  0  0  1  0  0  0  0  0  0
   -4.0516    2.7892    0.0000 O   0  0  0  0  0  0  0  0  0  0  0  0
  1  2  1  0
  2  3  1  0
  2  4  1  0
  4  5  1  6
  5  6  1  0
  6  7  2  0
  7  8  1  0
  8  9  1  0
  8 10  1  0
 10 11  1  0
 11 12  2  0
 12 13  1  0
 13 14  1  0
 12 15  1  0
 15 16  2  0
 16 17  1  0
  4 18  1  0
 18 19  1  0
 18 20  2  0
 17  6  1  0
 17 10  2  0
M  ISO  4   1   1   3   3   9   4  19   2
M  END
>  <symbol>  (385) 
Trp_5OMe

>  <m_abbr>  (385) 
Trp_5OMe

>  <m_name>  (385) 
L-5-Methoxytryptophan

>  <m_type>  (385) 
aa

>  <m_subtype>  (385) 
modified

>  <m_Rgroups>  (385) 
[H],[OH],[H],[H]

>  <m_chem_types>  (385) 
1:backbone_n,2:backbone_c,3:backbone_n_mod,4:aromatic_nh

>  <m_activation_policy>  (385) 
canonical-sites-v1

$$$$

     RDKit          2D

 19 20  0  0  0  0  0  0  0  0999 V2000
   -4.2806   -1.4552    0.0000 R   0  0  0  0  0  1  0  0  0  0  0  0
   -2.8579   -0.9798    0.0000 N   0  0  0  0  0  0  0  0  0  0  0  0
   -1.7348   -1.9742    0.0000 R   0  0  0  0  0  1  0  0  0  0  0  0
   -2.5582    0.4900    0.0000 C   0  0  0  0  0  0  0  0  0  0  0  0
   -1.1356    0.9654    0.0000 C   0  0  0  0  0  0  0  0  0  0  0  0
   -0.0125   -0.0290    0.0000 C   0  0  0  0  0  0  0  0  0  0  0  0
   -0.1569   -1.5220    0.0000 C   0  0  0  0  0  0  0  0  0  0  0  0
    1.2185   -2.1207    0.0000 N   0  0  0  0  0  0  0  0  0  0  0  0
    1.5425   -3.5853    0.0000 R   0  0  0  0  0  1  0  0  0  0  0  0
    2.2128   -0.9977    0.0000 C   0  0  0  0  0  0  0  0  0  0  0  0
    3.7128   -0.9852    0.0000 C   0  0  0  0  0  0  0  0  0  0  0  0
    4.4519    0.3200    0.0000 C   0  0  0  0  0  0  0  0  0  0  0  0
    3.6912    1.6128    0.0000 C   0  0  0  0  0  0  0  0  0  0  0  0
    4.4303    2.9180    0.0000 F   0  0  0  0  0  0  0  0  0  0  0  0
    2.1912    1.6003    0.0000 C   0  0  0  0  0  0  0  0  0  0  0  0
    1.4521    0.2951    0.0000 C   0  0  0  0  0  0  0  0  0  0  0  0
   -3.6813    1.4844    0.0000 C   0  0  0  0  0  0  0  0  0  0  0  0
   -5.1039    1.0090    0.0000 R   0  0  0  0  0  1  0  0  0  0  0  0
   -3.3816    2.9541    0.0000 O   0  0  0  0  0  0  0  0  0  0  0  0
  1  2  1  0
  2  3  1  0
  2  4  1  0
  4  5  1  6
  5  6  1  0
  6  7  2  0
  7  8  1  0
  8  9  1  0
  8 10  1  0
 10 11  1  0
 11 12  2  0
 12 13  1  0
 13 14  1  0
 13 15  2  0
 15 16  1  0
  4 17  1  0
 17 18  1  0
 17 19  2  0
 16  6  1  0
 16 10  2  0
M  ISO  4   1   1   3   3   9   4  18   2
M  END
>  <symbol>  (386) 
Trp_6F

>  <m_abbr>  (386) 
Trp_6F

>  <m_name>  (386) 
L-6-Fluorotryptophan

>  <m_type>  (386) 
aa

>  <m_subtype>  (386) 
modified

>  <m_Rgroups>  (386) 
[H],[OH],[H],[H]

>  <m_chem_types>  (386) 
1:backbone_n,2:backbone_c,3:backbone_n_mod,4:aromatic_nh

>  <m_activation_policy>  (386) 
canonical-sites-v1

$$$$

     RDKit          2D

 18 19  0  0  0  0  0  0  0  0999 V2000
   -3.8349   -1.8005    0.0000 R   0  0  0  0  0  1  0  0  0  0  0  0
   -2.4851   -1.1463    0.0000 N   0  0  0  0  0  0  0  0  0  0  0  0
   -1.2436   -1.9882    0.0000 R   0  0  0  0  0  1  0  0  0  0  0  0
   -2.3767    0.3497    0.0000 C   0  0  0  0  0  0  0  0  0  0  0  0
   -1.0269    1.0039    0.0000 C   0  0  0  0  0  0  0  0  0  0  0  0
    0.2146    0.1620    0.0000 C   0  0  0  0  0  0  0  0  0  0  0  0
    0.2632   -1.3372    0.0000 C   0  0  0  0  0  0  0  0  0  0  0  0
    1.7040   -1.7543    0.0000 N   0  0  0  0  0  0  0  0  0  0  0  0
    2.2135   -3.1651    0.0000 R   0  0  0  0  0  1  0  0  0  0  0  0
    2.5459   -0.5128    0.0000 C   0  0  0  0  0  0  0  0  0  0  0  0
    4.0318   -0.3078    0.0000 N   0  0  0  0  0  0  0  0  0  0  0  0
    4.5972    1.0816    0.0000 C   0  0  0  0  0  0  0  0  0  0  0  0
    3.6767    2.2659    0.0000 C   0  0  0  0  0  0  0  0  0  0  0  0
    2.1908    2.0609    0.0000 C   0  0  0  0  0  0  0  0  0  0  0  0
    1.6254    0.6715    0.0000 C   0  0  0  0  0  0  0  0  0  0  0  0
   -3.6182    1.1916    0.0000 C   0  0  0  0  0  0  0  0  0  0  0  0
   -4.9680    0.5375    0.0000 R   0  0  0  0  0  1  0  0  0  0  0  0
   -3.5098    2.6877    0.0000 O   0  0  0  0  0  0  0  0  0  0  0  0
  1  2  1  0
  2  3  1  0
  2  4  1  0
  4  5  1  6
  5  6  1  0
  6  7  2  0
  7  8  1  0
  8  9  1  0
  8 10  1  0
 10 11  2  0
 11 12  1  0
 12 13  2  0
 13 14  1  0
 14 15  2  0
  4 16  1  0
 16 17  1  0
 16 18  2  0
 15  6  1  0
 15 10  1  0
M  ISO  4   1   1   3   3   9   4  17   2
M  END
>  <symbol>  (387) 
Trp_7Aza

>  <m_abbr>  (387) 
Trp_7Aza

>  <m_name>  (387) 
L-7-Azatryptophan

>  <m_type>  (387) 
aa

>  <m_subtype>  (387) 
modified

>  <m_Rgroups>  (387) 
[H],[OH],[H],[H]

>  <m_chem_types>  (387) 
1:backbone_n,2:backbone_c,3:backbone_n_mod,4:aromatic_nh

>  <m_activation_policy>  (387) 
canonical-sites-v1

$$$$

     RDKit          2D

 18 19  0  0  0  0  0  0  0  0999 V2000
   -3.8349   -1.8005    0.0000 R   0  0  0  0  0  1  0  0  0  0  0  0
   -2.4851   -1.1463    0.0000 N   0  0  0  0  0  0  0  0  0  0  0  0
   -1.2436   -1.9882    0.0000 R   0  0  0  0  0  1  0  0  0  0  0  0
   -2.3767    0.3497    0.0000 C   0  0  0  0  0  0  0  0  0  0  0  0
   -1.0269    1.0039    0.0000 C   0  0  0  0  0  0  0  0  0  0  0  0
    0.2146    0.1620    0.0000 C   0  0  0  0  0  0  0  0  0  0  0  0
    0.2632   -1.3372    0.0000 C   0  0  0  0  0  0  0  0  0  0  0  0
    1.7040   -1.7543    0.0000 N   0  0  0  0  0  0  0  0  0  0  0  0
    2.2135   -3.1651    0.0000 C   0  0  0  0  0  0  0  0  0  0  0  0
    2.5459   -0.5128    0.0000 C   0  0  0  0  0  0  0  0  0  0  0  0
    4.0318   -0.3078    0.0000 C   0  0  0  0  0  0  0  0  0  0  0  0
    4.5972    1.0816    0.0000 C   0  0  0  0  0  0  0  0  0  0  0  0
    3.6767    2.2659    0.0000 C   0  0  0  0  0  0  0  0  0  0  0  0
    2.1908    2.0609    0.0000 C   0  0  0  0  0  0  0  0  0  0  0  0
    1.6254    0.6715    0.0000 C   0  0  0  0  0  0  0  0  0  0  0  0
   -3.6182    1.1916    0.0000 C   0  0  0  0  0  0  0  0  0  0  0  0
   -4.9680    0.5375    0.0000 R   0  0  0  0  0  1  0  0  0  0  0  0
   -3.5098    2.6877    0.0000 O   0  0  0  0  0  0  0  0  0  0  0  0
  1  2  1  0
  2  3  1  0
  2  4  1  0
  4  5  1  6
  5  6  1  0
  6  7  2  0
  7  8  1  0
  8  9  1  0
  8 10  1  0
 10 11  2  0
 11 12  1  0
 12 13  2  0
 13 14  1  0
 14 15  2  0
  4 16  1  0
 16 17  1  0
 16 18  2  0
 15  6  1  0
 15 10  1  0
M  ISO  3   1   1   3   3  17   2
M  END
>  <symbol>  (388) 
Trp_1Me

>  <m_abbr>  (388) 
Trp_1Me

>  <m_name>  (388) 
L-1-Methyltryptophan

>  <m_type>  (388) 
aa

>  <m_subtype>  (388) 
modified

>  <m_Rgroups>  (388) 
[H],[OH],[H]

>  <m_chem_types>  (388) 
1:backbone_n,2:backbone_c,3:backbone_n_mod

>  <m_activation_policy>  (388) 
canonical-sites-v1

$$$$

     RDKit          2D

 19 20  0  0  0  0  0  0  0  0999 V2000
   -3.9960   -1.9420    0.0000 R   0  0  0  0  0  1  0  0  0  0  0  0
   -2.6837   -1.2154    0.0000 N   0  0  0  0  0  0  0  0  0  0  0  0
   -1.3983   -1.9886    0.0000 R   0  0  0  0  0  1  0  0  0  0  0  0
   -2.6567    0.2843    0.0000 C   0  0  0  0  0  0  0  0  0  0  0  0
   -1.3444    1.0109    0.0000 C   0  0  0  0  0  0  0  0  0  0  0  0
   -0.0591    0.2377    0.0000 C   0  0  0  0  0  0  0  0  0  0  0  0
    0.0709   -1.2567    0.0000 C   0  0  0  0  0  0  0  0  0  0  0  0
    1.5323   -1.5948    0.0000 N   0  0  0  0  0  0  0  0  0  0  0  0
    2.1177   -2.9759    0.0000 R   0  0  0  0  0  1  0  0  0  0  0  0
    2.3055   -0.3095    0.0000 C   0  0  0  0  0  0  0  0  0  0  0  0
    3.7781   -0.0240    0.0000 C   0  0  0  0  0  0  0  0  0  0  0  0
    4.7616   -1.1565    0.0000 F   0  0  0  0  0  0  0  0  0  0  0  0
    4.2671    1.3940    0.0000 C   0  0  0  0  0  0  0  0  0  0  0  0
    3.2836    2.5266    0.0000 C   0  0  0  0  0  0  0  0  0  0  0  0
    1.8110    2.2411    0.0000 C   0  0  0  0  0  0  0  0  0  0  0  0
    1.3220    0.8231    0.0000 C   0  0  0  0  0  0  0  0  0  0  0  0
   -3.9421    1.0575    0.0000 C   0  0  0  0  0  0  0  0  0  0  0  0
   -5.2544    0.3310    0.0000 R   0  0  0  0  0  1  0  0  0  0  0  0
   -3.9152    2.5573    0.0000 O   0  0  0  0  0  0  0  0  0  0  0  0
  1  2  1  0
  2  3  1  0
  2  4  1  0
  4  5  1  6
  5  6  1  0
  6  7  2  0
  7  8  1  0
  8  9  1  0
  8 10  1  0
 10 11  2  0
 11 12  1  0
 11 13  1  0
 13 14  2  0
 14 15  1  0
 15 16  2  0
  4 17  1  0
 17 18  1  0
 17 19  2  0
 16  6  1  0
 16 10  1  0
M  ISO  4   1   1   3   3   9   4  18   2
M  END
>  <symbol>  (389) 
Trp_4F

>  <m_abbr>  (389) 
Trp_4F

>  <m_name>  (389) 
L-4-Fluorotryptophan

>  <m_type>  (389) 
aa

>  <m_subtype>  (389) 
modified

>  <m_Rgroups>  (389) 
[H],[OH],[H],[H]

>  <m_chem_types>  (389) 
1:backbone_n,2:backbone_c,3:backbone_n_mod,4:aromatic_nh

>  <m_activation_policy>  (389) 
canonical-sites-v1

$$$$

     RDKit          2D

 19 20  0  0  0  0  0  0  0  0999 V2000
   -4.6728    2.0158    0.0000 R   0  0  0  0  0  1  0  0  0  0  0  0
   -3.2913    1.4314    0.0000 N   0  0  0  0  0  0  0  0  0  0  0  0
   -2.0945    2.3356    0.0000 R   0  0  0  0  0  1  0  0  0  0  0  0
   -3.1067   -0.0572    0.0000 C   0  0  0  0  0  0  0  0  0  0  0  0
   -1.7252   -0.6416    0.0000 C   0  0  0  0  0  0  0  0  0  0  0  0
   -0.5284    0.2626    0.0000 C   0  0  0  0  0  0  0  0  0  0  0  0
    0.8531   -0.3218    0.0000 C   0  0  0  0  0  0  0  0  0  0  0  0
    1.1923   -1.7829    0.0000 C   0  0  0  0  0  0  0  0  0  0  0  0
    2.6868   -1.9118    0.0000 N   0  0  0  0  0  0  0  0  0  0  0  0
    3.4609   -3.1966    0.0000 R   0  0  0  0  0  1  0  0  0  0  0  0
    3.2712   -0.5303    0.0000 C   0  0  0  0  0  0  0  0  0  0  0  0
    4.6888   -0.0402    0.0000 C   0  0  0  0  0  0  0  0  0  0  0  0
    4.9732    1.4325    0.0000 C   0  0  0  0  0  0  0  0  0  0  0  0
    3.8400    2.4152    0.0000 C   0  0  0  0  0  0  0  0  0  0  0  0
    2.4223    1.9251    0.0000 C   0  0  0  0  0  0  0  0  0  0  0  0
    2.1379    0.4524    0.0000 C   0  0  0  0  0  0  0  0  0  0  0  0
   -4.3036   -0.9614    0.0000 C   0  0  0  0  0  0  0  0  0  0  0  0
   -5.6850   -0.3770    0.0000 R   0  0  0  0  0  1  0  0  0  0  0  0
   -4.1189   -2.4500    0.0000 O   0  0  0  0  0  0  0  0  0  0  0  0
  1  2  1  0
  2  3  1  0
  2  4  1  0
  4  5  1  1
  5  6  1  0
  6  7  1  0
  7  8  2  0
  8  9  1  0
  9 10  1  0
  9 11  1  0
 11 12  2  0
 12 13  1  0
 13 14  2  0
 14 15  1  0
 15 16  2  0
  4 17  1  0
 17 18  1  0
 17 19  2  0
 16  7  1  0
 16 11  1  0
M  ISO  4   1   1   3   3  10   4  18   2
M  END
>  <symbol>  (390) 
hTrp

>  <m_abbr>  (390) 
hTrp

>  <m_name>  (390) 
L-Homotryptophan

>  <m_type>  (390) 
aa

>  <m_subtype>  (390) 
modified

>  <m_Rgroups>  (390) 
[H],[OH],[H],[H]

>  <m_chem_types>  (390) 
1:backbone_n,2:backbone_c,3:backbone_n_mod,4:aromatic_nh

>  <m_activation_policy>  (390) 
canonical-sites-v1

$$$$

     RDKit          2D

 17 17  0  0  0  0  0  0  0  0999 V2000
   -3.4004    2.1682    0.0000 R   0  0  0  0  0  1  0  0  0  0  0  0
   -2.2177    1.2455    0.0000 N   0  0  0  0  0  0  0  0  0  0  0  0
   -0.8274    1.8085    0.0000 R   0  0  0  0  0  1  0  0  0  0  0  0
   -2.4254   -0.2400    0.0000 C   0  0  0  0  0  0  0  0  0  0  0  0
   -1.2428   -1.1627    0.0000 C   0  0  0  0  0  0  0  0  0  0  0  0
    0.1476   -0.5997    0.0000 C   0  0  0  0  0  0  0  0  0  0  0  0
    0.3553    0.8858    0.0000 C   0  0  0  0  0  0  0  0  0  0  0  0
    1.7457    1.4487    0.0000 C   0  0  0  0  0  0  0  0  0  0  0  0
    2.9284    0.5261    0.0000 C   0  0  0  0  0  0  0  0  0  0  0  0
    4.3187    1.0890    0.0000 O   0  0  0  0  0  0  0  0  0  0  0  0
    5.5014    0.1663    0.0000 R   0  0  0  0  0  1  0  0  0  0  0  0
    2.7207   -0.9595    0.0000 C   0  0  0  0  0  0  0  0  0  0  0  0
    3.9033   -1.8821    0.0000 F   0  0  0  0  0  0  0  0  0  0  0  0
    1.3303   -1.5224    0.0000 C   0  0  0  0  0  0  0  0  0  0  0  0
   -3.8158   -0.8029    0.0000 C   0  0  0  0  0  0  0  0  0  0  0  0
   -4.9985    0.1197    0.0000 R   0  0  0  0  0  1  0  0  0  0  0  0
   -4.0235   -2.2885    0.0000 O   0  0  0  0  0  0  0  0  0  0  0  0
  1  2  1  0
  2  3  1  0
  2  4  1  0
  4  5  1  1
  5  6  1  0
  6  7  1  0
  7  8  2  0
  8  9  1  0
  9 10  1  0
 10 11  1  0
  9 12  2  0
 12 13  1  0
 12 14  1  0
  4 15  1  0
 15 16  1  0
 15 17  2  0
 14  6  2  0
M  ISO  4   1   1   3   3  11   4  16   2
M  END
>  <symbol>  (391) 
Tyr_3F

>  <m_abbr>  (391) 
Tyr_3F

>  <m_name>  (391) 
L-3-Fluorotyrosine

>  <m_type>  (391) 
aa

>  <m_subtype>  (391) 
modified

>  <m_Rgroups>  (391) 
[H],[OH],[H],[H]

>  <m_chem_types>  (391) 
1:backbone_n,2:backbone_c,3:backbone_n_mod,4:aryl_phenol_o

>  <m_activation_policy>  (391) 
canonical-sites-v1

$$$$

     RDKit          2D

 17 17  0  0  0  0  0  0  0  0999 V2000
   -3.4004    2.1682    0.0000 R   0  0  0  0  0  1  0  0  0  0  0  0
   -2.2177    1.2455    0.0000 N   0  0  0  0  0  0  0  0  0  0  0  0
   -0.8274    1.8085    0.0000 R   0  0  0  0  0  1  0  0  0  0  0  0
   -2.4254   -0.2400    0.0000 C   0  0  0  0  0  0  0  0  0  0  0  0
   -1.2428   -1.1627    0.0000 C   0  0  0  0  0  0  0  0  0  0  0  0
    0.1476   -0.5997    0.0000 C   0  0  0  0  0  0  0  0  0  0  0  0
    0.3553    0.8858    0.0000 C   0  0  0  0  0  0  0  0  0  0  0  0
    1.7457    1.4487    0.0000 C   0  0  0  0  0  0  0  0  0  0  0  0
    2.9284    0.5261    0.0000 C   0  0  0  0  0  0  0  0  0  0  0  0
    4.3187    1.0890    0.0000 O   0  0  0  0  0  0  0  0  0  0  0  0
    5.5014    0.1663    0.0000 R   0  0  0  0  0  1  0  0  0  0  0  0
    2.7207   -0.9595    0.0000 C   0  0  0  0  0  0  0  0  0  0  0  0
    3.9033   -1.8821    0.0000 Cl  0  0  0  0  0  0  0  0  0  0  0  0
    1.3303   -1.5224    0.0000 C   0  0  0  0  0  0  0  0  0  0  0  0
   -3.8158   -0.8029    0.0000 C   0  0  0  0  0  0  0  0  0  0  0  0
   -4.9985    0.1197    0.0000 R   0  0  0  0  0  1  0  0  0  0  0  0
   -4.0235   -2.2885    0.0000 O   0  0  0  0  0  0  0  0  0  0  0  0
  1  2  1  0
  2  3  1  0
  2  4  1  0
  4  5  1  1
  5  6  1  0
  6  7  1  0
  7  8  2  0
  8  9  1  0
  9 10  1  0
 10 11  1  0
  9 12  2  0
 12 13  1  0
 12 14  1  0
  4 15  1  0
 15 16  1  0
 15 17  2  0
 14  6  2  0
M  ISO  4   1   1   3   3  11   4  16   2
M  END
>  <symbol>  (392) 
Tyr_3Cl

>  <m_abbr>  (392) 
Tyr_3Cl

>  <m_name>  (392) 
L-3-Chlorotyrosine

>  <m_type>  (392) 
aa

>  <m_subtype>  (392) 
modified

>  <m_Rgroups>  (392) 
[H],[OH],[H],[H]

>  <m_chem_types>  (392) 
1:backbone_n,2:backbone_c,3:backbone_n_mod,4:aryl_phenol_o

>  <m_activation_policy>  (392) 
canonical-sites-v1

$$$$

     RDKit          2D

 17 17  0  0  0  0  0  0  0  0999 V2000
   -3.4004    2.1682    0.0000 R   0  0  0  0  0  1  0  0  0  0  0  0
   -2.2177    1.2455    0.0000 N   0  0  0  0  0  0  0  0  0  0  0  0
   -0.8274    1.8085    0.0000 R   0  0  0  0  0  1  0  0  0  0  0  0
   -2.4254   -0.2400    0.0000 C   0  0  0  0  0  0  0  0  0  0  0  0
   -1.2428   -1.1627    0.0000 C   0  0  0  0  0  0  0  0  0  0  0  0
    0.1476   -0.5997    0.0000 C   0  0  0  0  0  0  0  0  0  0  0  0
    0.3553    0.8858    0.0000 C   0  0  0  0  0  0  0  0  0  0  0  0
    1.7457    1.4487    0.0000 C   0  0  0  0  0  0  0  0  0  0  0  0
    2.9284    0.5261    0.0000 C   0  0  0  0  0  0  0  0  0  0  0  0
    4.3187    1.0890    0.0000 O   0  0  0  0  0  0  0  0  0  0  0  0
    5.5014    0.1663    0.0000 R   0  0  0  0  0  1  0  0  0  0  0  0
    2.7207   -0.9595    0.0000 C   0  0  0  0  0  0  0  0  0  0  0  0
    3.9033   -1.8821    0.0000 Br  0  0  0  0  0  0  0  0  0  0  0  0
    1.3303   -1.5224    0.0000 C   0  0  0  0  0  0  0  0  0  0  0  0
   -3.8158   -0.8029    0.0000 C   0  0  0  0  0  0  0  0  0  0  0  0
   -4.9985    0.1197    0.0000 R   0  0  0  0  0  1  0  0  0  0  0  0
   -4.0235   -2.2885    0.0000 O   0  0  0  0  0  0  0  0  0  0  0  0
  1  2  1  0
  2  3  1  0
  2  4  1  0
  4  5  1  1
  5  6  1  0
  6  7  1  0
  7  8  2  0
  8  9  1  0
  9 10  1  0
 10 11  1  0
  9 12  2  0
 12 13  1  0
 12 14  1  0
  4 15  1  0
 15 16  1  0
 15 17  2  0
 14  6  2  0
M  ISO  4   1   1   3   3  11   4  16   2
M  END
>  <symbol>  (393) 
Tyr_3Br

>  <m_abbr>  (393) 
Tyr_3Br

>  <m_name>  (393) 
L-3-Bromotyrosine

>  <m_type>  (393) 
aa

>  <m_subtype>  (393) 
modified

>  <m_Rgroups>  (393) 
[H],[OH],[H],[H]

>  <m_chem_types>  (393) 
1:backbone_n,2:backbone_c,3:backbone_n_mod,4:aryl_phenol_o

>  <m_activation_policy>  (393) 
canonical-sites-v1

$$$$

     RDKit          2D

 18 18  0  0  0  0  0  0  0  0999 V2000
   -4.7933    0.2013    0.0000 R   0  0  0  0  0  1  0  0  0  0  0  0
   -3.6319   -0.7481    0.0000 N   0  0  0  0  0  0  0  0  0  0  0  0
   -3.8735   -2.2285    0.0000 R   0  0  0  0  0  1  0  0  0  0  0  0
   -2.2291   -0.2170    0.0000 C   0  0  0  0  0  0  0  0  0  0  0  0
   -1.0678   -1.1664    0.0000 C   0  0  0  0  0  0  0  0  0  0  0  0
    0.3351   -0.6354    0.0000 C   0  0  0  0  0  0  0  0  0  0  0  0
    0.5766    0.8451    0.0000 C   0  0  0  0  0  0  0  0  0  0  0  0
   -0.1793    1.6352    0.0000 C   0  0  0  0  0  0  0  0  0  0  0  0
    1.9794    1.3761    0.0000 C   0  0  0  0  0  0  0  0  0  0  0  0
    3.1408    0.4267    0.0000 C   0  0  0  0  0  0  0  0  0  0  0  0
    4.5436    0.9578    0.0000 O   0  0  0  0  0  0  0  0  0  0  0  0
    5.7050    0.0084    0.0000 R   0  0  0  0  0  1  0  0  0  0  0  0
    2.8993   -1.0537    0.0000 C   0  0  0  0  0  0  0  0  0  0  0  0
    1.4964   -1.5847    0.0000 C   0  0  0  0  0  0  0  0  0  0  0  0
    1.2549   -3.0652    0.0000 C   0  0  0  0  0  0  0  0  0  0  0  0
   -1.9876    1.2634    0.0000 C   0  0  0  0  0  0  0  0  0  0  0  0
   -3.1489    2.2128    0.0000 R   0  0  0  0  0  1  0  0  0  0  0  0
   -1.0197    1.7723    0.0000 O   0  0  0  0  0  0  0  0  0  0  0  0
  1  2  1  0
  2  3  1  0
  2  4  1  0
  4  5  1  6
  5  6  1  0
  6  7  2  0
  7  8  1  0
  7  9  1  0
  9 10  2  0
 10 11  1  0
 11 12  1  0
 10 13  1  0
 13 14  2  0
 14 15  1  0
  4 16  1  0
 16 17  1  0
 16 18  2  0
 14  6  1  0
M  ISO  4   1   1   3   3  12   4  17   2
M  END
>  <symbol>  (394) 
Tyr_35diMe

>  <m_abbr>  (394) 
Tyr_35diMe

>  <m_name>  (394) 
L-3,5-Dimethyltyrosine

>  <m_type>  (394) 
aa

>  <m_subtype>  (394) 
modified

>  <m_Rgroups>  (394) 
[H],[OH],[H],[H]

>  <m_chem_types>  (394) 
1:backbone_n,2:backbone_c,3:backbone_n_mod,4:aryl_phenol_o

>  <m_activation_policy>  (394) 
canonical-sites-v1

$$$$

     RDKit          2D

 11 10  0  0  0  0  0  0  0  0999 V2000
   -2.2500    0.8899    0.0000 R   0  0  0  0  0  1  0  0  0  0  0  0
   -1.5000   -0.4091    0.0000 N   0  0  0  0  0  0  0  0  0  0  0  0
   -2.2500   -1.7081    0.0000 R   0  0  0  0  0  1  0  0  0  0  0  0
   -0.0000   -0.4091    0.0000 C   0  0  0  0  0  0  0  0  0  0  0  0
   -0.0000   -1.9091    0.0000 C   0  0  0  0  0  0  0  0  0  0  0  0
    1.5000   -0.4091    0.0000 C   0  0  0  0  0  0  0  0  0  0  0  0
    2.2500    0.8899    0.0000 R   0  0  0  0  0  1  0  0  0  0  0  0
    2.2500   -1.7081    0.0000 O   0  0  0  0  0  0  0  0  0  0  0  0
    0.0000    1.0909    0.0000 C   0  0  0  0  0  0  0  0  0  0  0  0
    1.2990    1.8409    0.0000 C   0  0  0  0  0  0  0  0  0  0  0  0
   -1.2990    1.8409    0.0000 C   0  0  0  0  0  0  0  0  0  0  0  0
  1  2  1  0
  2  3  1  0
  2  4  1  0
  4  5  1  0
  4  6  1  0
  6  7  1  0
  6  8  2  0
  4  9  1  0
  9 10  1  0
  9 11  1  0
M  ISO  3   1   1   3   3   7   2
M  END
>  <symbol>  (395) 
aMeVal

>  <m_abbr>  (395) 
aMeVal

>  <m_name>  (395) 
alpha-Methylvaline (alpha-Me-Val)

>  <m_type>  (395) 
aa

>  <m_subtype>  (395) 
modified

>  <m_Rgroups>  (395) 
[H],[OH],[H]

>  <m_chem_types>  (395) 
1:backbone_n,2:backbone_c,3:backbone_n_mod

>  <m_activation_policy>  (395) 
canonical-sites-v1

$$$$

     RDKit          2D

 19 20  0  0  0  0  0  0  0  0999 V2000
   -4.7073    1.3659    0.0000 R   0  0  0  0  0  1  0  0  0  0  0  0
   -3.2073    1.3652    0.0000 N   0  0  0  0  0  0  0  0  0  0  0  0
   -2.4567    2.6640    0.0000 R   0  0  0  0  0  1  0  0  0  0  0  0
   -2.4579    0.0659    0.0000 C   0  0  0  0  0  0  0  0  0  0  0  0
   -3.7572   -0.6836    0.0000 C   0  0  0  0  0  0  0  0  0  0  0  0
   -1.1585    0.8153    0.0000 C   0  0  0  0  0  0  0  0  0  0  0  0
    0.1402    0.0648    0.0000 C   0  0  0  0  0  0  0  0  0  0  0  0
    0.2964   -1.4271    0.0000 C   0  0  0  0  0  0  0  0  0  0  0  0
    1.7635   -1.7396    0.0000 N   0  0  0  0  0  0  0  0  0  0  0  0
    2.3730   -3.1102    0.0000 R   0  0  0  0  0  1  0  0  0  0  0  0
    2.5140   -0.4409    0.0000 C   0  0  0  0  0  0  0  0  0  0  0  0
    3.9814   -0.1296    0.0000 C   0  0  0  0  0  0  0  0  0  0  0  0
    4.4455    1.2967    0.0000 C   0  0  0  0  0  0  0  0  0  0  0  0
    3.4423    2.4119    0.0000 C   0  0  0  0  0  0  0  0  0  0  0  0
    1.9749    2.1007    0.0000 C   0  0  0  0  0  0  0  0  0  0  0  0
    1.5108    0.6743    0.0000 C   0  0  0  0  0  0  0  0  0  0  0  0
   -1.7084   -1.2335    0.0000 C   0  0  0  0  0  0  0  0  0  0  0  0
   -0.5297   -1.5280    0.0000 R   0  0  0  0  0  1  0  0  0  0  0  0
   -2.4590   -2.5322    0.0000 O   0  0  0  0  0  0  0  0  0  0  0  0
  1  2  1  0
  2  3  1  0
  2  4  1  0
  4  5  1  0
  4  6  1  0
  6  7  1  0
  7  8  2  0
  8  9  1  0
  9 10  1  0
  9 11  1  0
 11 12  2  0
 12 13  1  0
 13 14  2  0
 14 15  1  0
 15 16  2  0
  4 17  1  0
 17 18  1  0
 17 19  2  0
 16  7  1  0
 16 11  1  0
M  ISO  4   1   1   3   3  10   4  18   2
M  END
>  <symbol>  (396) 
aMeTrp

>  <m_abbr>  (396) 
aMeTrp

>  <m_name>  (396) 
alpha-Methyltryptophan

>  <m_type>  (396) 
aa

>  <m_subtype>  (396) 
modified

>  <m_Rgroups>  (396) 
[H],[OH],[H],[H]

>  <m_chem_types>  (396) 
1:backbone_n,2:backbone_c,3:backbone_n_mod,4:aromatic_nh

>  <m_activation_policy>  (396) 
canonical-sites-v1

$$$$

     RDKit          2D

 13 12  0  0  0  0  0  0  0  0999 V2000
   -1.0398    2.4415    0.0000 R   0  0  0  0  0  1  0  0  0  0  0  0
   -1.8741    1.1949    0.0000 N   0  0  0  0  0  0  0  0  0  0  0  0
   -3.3709    1.2942    0.0000 R   0  0  0  0  0  1  0  0  0  0  0  0
   -1.2118   -0.1509    0.0000 C   0  0  0  0  0  0  0  0  0  0  0  0
   -2.5576   -0.8133    0.0000 C   0  0  0  0  0  0  0  0  0  0  0  0
    0.1341    0.5115    0.0000 C   0  0  0  0  0  0  0  0  0  0  0  0
    1.3806   -0.3228    0.0000 C   0  0  0  0  0  0  0  0  0  0  0  0
    2.7264    0.3395    0.0000 C   0  0  0  0  0  0  0  0  0  0  0  0
    3.9730   -0.4948    0.0000 R   0  0  0  0  0  1  0  0  0  0  0  0
    2.8257    1.8363    0.0000 O   0  0  0  0  0  0  0  0  0  0  0  0
   -0.5494   -1.4967    0.0000 C   0  0  0  0  0  0  0  0  0  0  0  0
    0.9473   -1.5960    0.0000 R   0  0  0  0  0  1  0  0  0  0  0  0
   -1.3837   -2.7433    0.0000 O   0  0  0  0  0  0  0  0  0  0  0  0
  1  2  1  0
  2  3  1  0
  2  4  1  0
  4  5  1  0
  4  6  1  0
  6  7  1  0
  7  8  1  0
  8  9  1  0
  8 10  2  0
  4 11  1  0
 11 12  1  0
 11 13  2  0
M  ISO  4   1   1   3   3   9   4  12   2
M  END
>  <symbol>  (397) 
aMeGlu

>  <m_abbr>  (397) 
aMeGlu

>  <m_name>  (397) 
alpha-Methylglutamic acid

>  <m_type>  (397) 
aa

>  <m_subtype>  (397) 
modified

>  <m_Rgroups>  (397) 
[H],[OH],[H],[OH]

>  <m_chem_types>  (397) 
1:backbone_n,2:backbone_c,3:backbone_n_mod,4:carboxyl

>  <m_activation_policy>  (397) 
canonical-sites-v1

$$$$

     RDKit          2D

 12 11  0  0  0  0  0  0  0  0999 V2000
   -1.5970    2.2233    0.0000 R   0  0  0  0  0  1  0  0  0  0  0  0
   -1.8542    0.7455    0.0000 N   0  0  0  0  0  0  0  0  0  0  0  0
   -3.2625    0.2293    0.0000 R   0  0  0  0  0  1  0  0  0  0  0  0
   -0.7029   -0.2161    0.0000 C   0  0  0  0  0  0  0  0  0  0  0  0
   -1.6645   -1.3673    0.0000 C   0  0  0  0  0  0  0  0  0  0  0  0
    0.2587    0.9352    0.0000 C   0  0  0  0  0  0  0  0  0  0  0  0
    1.7365    0.6781    0.0000 C   0  0  0  0  0  0  0  0  0  0  0  0
    2.2351   -0.2951    0.0000 R   0  0  0  0  0  1  0  0  0  0  0  0
    2.6980    1.8293    0.0000 O   0  0  0  0  0  0  0  0  0  0  0  0
    0.4483   -1.1776    0.0000 C   0  0  0  0  0  0  0  0  0  0  0  0
    0.1912   -2.6554    0.0000 R   0  0  0  0  0  1  0  0  0  0  0  0
    1.5133   -0.9293    0.0000 O   0  0  0  0  0  0  0  0  0  0  0  0
  1  2  1  0
  2  3  1  0
  2  4  1  0
  4  5  1  0
  4  6  1  0
  6  7  1  0
  7  8  1  0
  7  9  2  0
  4 10  1  0
 10 11  1  0
 10 12  2  0
M  ISO  4   1   1   3   3   8   4  11   2
M  END
>  <symbol>  (398) 
aMeAsp

>  <m_abbr>  (398) 
aMeAsp

>  <m_name>  (398) 
alpha-Methylaspartic acid

>  <m_type>  (398) 
aa

>  <m_subtype>  (398) 
modified

>  <m_Rgroups>  (398) 
[H],[OH],[H],[OH]

>  <m_chem_types>  (398) 
1:backbone_n,2:backbone_c,3:backbone_n_mod,4:carboxyl

>  <m_activation_policy>  (398) 
canonical-sites-v1

$$$$

     RDKit          2D

 15 14  0  0  0  0  0  0  0  0999 V2000
   -1.9831    2.5037    0.0000 R   0  0  0  0  0  1  0  0  0  0  0  0
   -2.8283    1.2645    0.0000 N   0  0  0  0  0  0  0  0  0  0  0  0
   -4.3241    1.3769    0.0000 R   0  0  0  0  0  1  0  0  0  0  0  0
   -2.1777   -0.0871    0.0000 C   0  0  0  0  0  0  0  0  0  0  0  0
   -3.5293   -0.7377    0.0000 C   0  0  0  0  0  0  0  0  0  0  0  0
   -0.8261    0.5635    0.0000 C   0  0  0  0  0  0  0  0  0  0  0  0
    0.4131   -0.2817    0.0000 C   0  0  0  0  0  0  0  0  0  0  0  0
    1.7646    0.3688    0.0000 C   0  0  0  0  0  0  0  0  0  0  0  0
    3.0038   -0.4764    0.0000 C   0  0  0  0  0  0  0  0  0  0  0  0
    4.3554    0.1742    0.0000 N   0  0  0  0  0  0  0  0  0  0  0  0
    5.5946   -0.6710    0.0000 R   0  0  0  0  0  1  0  0  0  0  0  0
    4.4678    1.6700    0.0000 R   0  0  0  0  0  1  0  0  0  0  0  0
   -1.5271   -1.4387    0.0000 C   0  0  0  0  0  0  0  0  0  0  0  0
   -0.0314   -1.5510    0.0000 R   0  0  0  0  0  1  0  0  0  0  0  0
   -2.3724   -2.6779    0.0000 O   0  0  0  0  0  0  0  0  0  0  0  0
  1  2  1  0
  2  3  1  0
  2  4  1  0
  4  5  1  0
  4  6  1  0
  6  7  1  0
  7  8  1  0
  8  9  1  0
  9 10  1  0
 10 11  1  0
 10 12  1  0
  4 13  1  0
 13 14  1  0
 13 15  2  0
M  ISO  5   1   1   3   3  11   4  12   5  14   2
M  END
>  <symbol>  (399) 
aMeLys

>  <m_abbr>  (399) 
aMeLys

>  <m_name>  (399) 
alpha-Methyllysine

>  <m_type>  (399) 
aa

>  <m_subtype>  (399) 
modified

>  <m_Rgroups>  (399) 
[H],[OH],[H],[H],[H]

>  <m_chem_types>  (399) 
1:backbone_n,2:backbone_c,3:backbone_n_mod,4:amine_primary,5:amine_primary

>  <m_activation_policy>  (399) 
canonical-sites-v1

$$$$

     RDKit          2D

 15 14  0  0  0  0  0  0  0  0999 V2000
   -1.8599    2.4169    0.0000 R   0  0  0  0  0  1  0  0  0  0  0  0
   -2.5878    1.1053    0.0000 N   0  0  0  0  0  0  0  0  0  0  0  0
   -4.0876    1.0798    0.0000 R   0  0  0  0  0  1  0  0  0  0  0  0
   -1.8158   -0.1808    0.0000 C   0  0  0  0  0  0  0  0  0  0  0  0
   -3.1020   -0.9528    0.0000 C   0  0  0  0  0  0  0  0  0  0  0  0
   -0.5297    0.5911    0.0000 C   0  0  0  0  0  0  0  0  0  0  0  0
    0.7819   -0.1367    0.0000 C   0  0  0  0  0  0  0  0  0  0  0  0
    2.0680    0.6352    0.0000 C   0  0  0  0  0  0  0  0  0  0  0  0
    2.0425    2.1350    0.0000 O   0  0  0  0  0  0  0  0  0  0  0  0
    3.3796   -0.0927    0.0000 N   0  0  0  0  0  0  0  0  0  0  0  0
    4.6657    0.6793    0.0000 R   0  0  0  0  0  1  0  0  0  0  0  0
    3.4050   -1.5924    0.0000 R   0  0  0  0  0  1  0  0  0  0  0  0
   -1.0439   -1.4670    0.0000 C   0  0  0  0  0  0  0  0  0  0  0  0
    0.4559   -1.4415    0.0000 R   0  0  0  0  0  1  0  0  0  0  0  0
   -1.7717   -2.7785    0.0000 O   0  0  0  0  0  0  0  0  0  0  0  0
  1  2  1  0
  2  3  1  0
  2  4  1  0
  4  5  1  0
  4  6  1  0
  6  7  1  0
  7  8  1  0
  8  9  2  0
  8 10  1  0
 10 11  1  0
 10 12  1  0
  4 13  1  0
 13 14  1  0
 13 15  2  0
M  ISO  5   1   1   3   3  11   4  12   5  14   2
M  END
>  <symbol>  (400) 
aMeGln

>  <m_abbr>  (400) 
aMeGln

>  <m_name>  (400) 
alpha-Methylglutamine

>  <m_type>  (400) 
aa

>  <m_subtype>  (400) 
modified

>  <m_Rgroups>  (400) 
[H],[OH],[H],[H],[H]

>  <m_chem_types>  (400) 
1:backbone_n,2:backbone_c,3:backbone_n_mod,4:amide_nh,5:amide_nh

>  <m_activation_policy>  (400) 
canonical-sites-v1

$$$$

     RDKit          2D

 14 13  0  0  0  0  0  0  0  0999 V2000
   -1.2120    2.5044    0.0000 R   0  0  0  0  0  1  0  0  0  0  0  0
   -1.9967    1.2260    0.0000 N   0  0  0  0  0  0  0  0  0  0  0  0
   -3.4961    1.2663    0.0000 R   0  0  0  0  0  1  0  0  0  0  0  0
   -1.2819   -0.0928    0.0000 C   0  0  0  0  0  0  0  0  0  0  0  0
   -2.6006   -0.8076    0.0000 C   0  0  0  0  0  0  0  0  0  0  0  0
    0.0368    0.6220    0.0000 C   0  0  0  0  0  0  0  0  0  0  0  0
    1.3152   -0.1627    0.0000 C   0  0  0  0  0  0  0  0  0  0  0  0
    1.4193   -1.2512    0.0000 O   0  0  0  0  0  0  0  0  0  0  0  0
    2.6340    0.5521    0.0000 N   0  0  0  0  0  0  0  0  0  0  0  0
    3.9124   -0.2326    0.0000 R   0  0  0  0  0  1  0  0  0  0  0  0
    2.6743    2.0515    0.0000 R   0  0  0  0  0  1  0  0  0  0  0  0
   -0.5671   -1.4115    0.0000 C   0  0  0  0  0  0  0  0  0  0  0  0
   -1.3518   -2.6899    0.0000 R   0  0  0  0  0  1  0  0  0  0  0  0
    0.5142   -1.5740    0.0000 O   0  0  0  0  0  0  0  0  0  0  0  0
  1  2  1  0
  2  3  1  0
  2  4  1  0
  4  5  1  0
  4  6  1  0
  6  7  1  0
  7  8  2  0
  7  9  1  0
  9 10  1  0
  9 11  1  0
  4 12  1  0
 12 13  1  0
 12 14  2  0
M  ISO  5   1   1   3   3  10   4  11   5  13   2
M  END
>  <symbol>  (401) 
aMeAsn

>  <m_abbr>  (401) 
aMeAsn

>  <m_name>  (401) 
alpha-Methylasparagine

>  <m_type>  (401) 
aa

>  <m_subtype>  (401) 
modified

>  <m_Rgroups>  (401) 
[H],[OH],[H],[H],[H]

>  <m_chem_types>  (401) 
1:backbone_n,2:backbone_c,3:backbone_n_mod,4:amide_nh,5:amide_nh

>  <m_activation_policy>  (401) 
canonical-sites-v1

$$$$

     RDKit          2D

 11 10  0  0  0  0  0  0  0  0999 V2000
   -1.2617    2.2709    0.0000 R   0  0  0  0  0  1  0  0  0  0  0  0
   -1.6267    0.8160    0.0000 N   0  0  0  0  0  0  0  0  0  0  0  0
   -3.0691    0.4046    0.0000 R   0  0  0  0  0  1  0  0  0  0  0  0
   -0.5491   -0.2275    0.0000 C   0  0  0  0  0  0  0  0  0  0  0  0
   -1.5926   -1.3050    0.0000 C   0  0  0  0  0  0  0  0  0  0  0  0
    0.4944    0.8500    0.0000 C   0  0  0  0  0  0  0  0  0  0  0  0
    1.9493    0.4851    0.0000 O   0  0  0  0  0  0  0  0  0  0  0  0
    2.9928    1.5626    0.0000 R   0  0  0  0  0  1  0  0  0  0  0  0
    0.5284   -1.2710    0.0000 C   0  0  0  0  0  0  0  0  0  0  0  0
    1.9709   -0.8596    0.0000 R   0  0  0  0  0  1  0  0  0  0  0  0
    0.1634   -2.7260    0.0000 O   0  0  0  0  0  0  0  0  0  0  0  0
  1  2  1  0
  2  3  1  0
  2  4  1  0
  4  5  1  0
  4  6  1  0
  6  7  1  0
  7  8  1  0
  4  9  1  0
  9 10  1  0
  9 11  2  0
M  ISO  4   1   1   3   3   8   4  10   2
M  END
>  <symbol>  (402) 
aMeSer

>  <m_abbr>  (402) 
aMeSer

>  <m_name>  (402) 
alpha-Methylserine

>  <m_type>  (402) 
aa

>  <m_subtype>  (402) 
modified

>  <m_Rgroups>  (402) 
[H],[OH],[H],[H]

>  <m_chem_types>  (402) 
1:backbone_n,2:backbone_c,3:backbone_n_mod,4:hydroxyl

>  <m_activation_policy>  (402) 
canonical-sites-v1

$$$$

     RDKit          2D

 11 10  0  0  0  0  0  0  0  0999 V2000
   -2.0892    1.3257    0.0000 R   0  0  0  0  0  1  0  0  0  0  0  0
   -1.7537   -0.1363    0.0000 N   0  0  0  0  0  0  0  0  0  0  0  0
   -2.8521   -1.1579    0.0000 R   0  0  0  0  0  1  0  0  0  0  0  0
   -0.3198   -0.5768    0.0000 C   0  0  0  0  0  0  0  0  0  0  0  0
   -0.7603   -2.0107    0.0000 C   0  0  0  0  0  0  0  0  0  0  0  0
    1.1140   -1.0172    0.0000 C   0  0  0  0  0  0  0  0  0  0  0  0
    2.2124    0.0043    0.0000 S   0  0  0  0  0  0  0  0  0  0  0  0
    3.6463   -0.4362    0.0000 R   0  0  0  0  0  1  0  0  0  0  0  0
    0.1206    0.8571    0.0000 C   0  0  0  0  0  0  0  0  0  0  0  0
    1.5826    1.1926    0.0000 R   0  0  0  0  0  1  0  0  0  0  0  0
   -0.9009    1.9555    0.0000 O   0  0  0  0  0  0  0  0  0  0  0  0
  1  2  1  0
  2  3  1  0
  2  4  1  0
  4  5  1  0
  4  6  1  0
  6  7  1  0
  7  8  1  0
  4  9  1  0
  9 10  1  0
  9 11  2  0
M  ISO  4   1   1   3   3   8   4  10   2
M  END
>  <symbol>  (403) 
aMeCys

>  <m_abbr>  (403) 
aMeCys

>  <m_name>  (403) 
alpha-Methylcysteine

>  <m_type>  (403) 
aa

>  <m_subtype>  (403) 
modified

>  <m_Rgroups>  (403) 
[H],[OH],[H],[H]

>  <m_chem_types>  (403) 
1:backbone_n,2:backbone_c,3:backbone_n_mod,4:thiol

>  <m_activation_policy>  (403) 
canonical-sites-v1

$$$$

     RDKit          2D

 15 15  0  0  0  0  0  0  0  0999 V2000
   -1.0480   -2.7236    0.0000 R   0  0  0  0  0  1  0  0  0  0  0  0
   -0.5312   -1.3155    0.0000 N   0  0  0  0  0  0  0  0  0  0  0  0
    0.6806   -1.4035    0.0000 R   0  0  0  0  0  1  0  0  0  0  0  0
   -1.4923   -0.1638    0.0000 C   0  0  0  0  0  0  0  0  0  0  0  0
   -2.6439   -1.1249    0.0000 C   0  0  0  0  0  0  0  0  0  0  0  0
   -0.3406    0.7973    0.0000 C   0  0  0  0  0  0  0  0  0  0  0  0
    1.0675    0.2805    0.0000 C   0  0  0  0  0  0  0  0  0  0  0  0
    1.4771   -1.1625    0.0000 C   0  0  0  0  0  0  0  0  0  0  0  0
    2.9761   -1.2189    0.0000 N   0  0  0  0  0  0  0  0  0  0  0  0
    3.4929    0.1892    0.0000 C   0  0  0  0  0  0  0  0  0  0  0  0
    2.3133    1.1159    0.0000 N   0  0  0  0  0  0  0  0  0  0  0  0
    2.3697    2.6148    0.0000 R   0  0  0  0  0  1  0  0  0  0  0  0
   -2.4534    0.9878    0.0000 C   0  0  0  0  0  0  0  0  0  0  0  0
   -1.9366    2.3960    0.0000 R   0  0  0  0  0  1  0  0  0  0  0  0
   -3.9313    0.7313    0.0000 O   0  0  0  0  0  0  0  0  0  0  0  0
  1  2  1  0
  2  3  1  0
  2  4  1  0
  4  5  1  0
  4  6  1  0
  6  7  1  0
  7  8  2  0
  8  9  1  0
  9 10  2  0
 10 11  1  0
 11 12  1  0
  4 13  1  0
 13 14  1  0
 13 15  2  0
 11  7  1  0
M  ISO  4   1   1   3   3  12   4  14   2
M  END
>  <symbol>  (404) 
aMeHis

>  <m_abbr>  (404) 
aMeHis

>  <m_name>  (404) 
alpha-Methylhistidine

>  <m_type>  (404) 
aa

>  <m_subtype>  (404) 
modified

>  <m_Rgroups>  (404) 
[H],[OH],[H],[H]

>  <m_chem_types>  (404) 
1:backbone_n,2:backbone_c,3:backbone_n_mod,4:aromatic_nh

>  <m_activation_policy>  (404) 
canonical-sites-v1

$$$$

     RDKit          2D

 12 11  0  0  0  0  0  0  0  0999 V2000
   -1.9405   -1.0935    0.0000 R   0  0  0  0  0  1  0  0  0  0  0  0
   -0.4893   -1.4732    0.0000 N   0  0  0  0  0  0  0  0  0  0  0  0
   -0.0926   -2.9197    0.0000 R   0  0  0  0  0  1  0  0  0  0  0  0
    0.5651   -0.4063    0.0000 C   0  0  0  0  0  0  0  0  0  0  0  0
    1.6320   -1.4607    0.0000 C   0  0  0  0  0  0  0  0  0  0  0  0
    1.6195    0.6606    0.0000 C   0  0  0  0  0  0  0  0  0  0  0  0
    1.2227    2.1072    0.0000 R   0  0  0  0  0  1  0  0  0  0  0  0
    3.0706    0.2809    0.0000 O   0  0  0  0  0  0  0  0  0  0  0  0
   -0.5018    0.6481    0.0000 C   0  0  0  0  0  0  0  0  0  0  0  0
   -0.1221    2.0993    0.0000 C   0  0  0  0  0  0  0  0  0  0  0  0
   -1.9484    0.2514    0.0000 C   0  0  0  0  0  0  0  0  0  0  0  0
   -3.0153    1.3058    0.0000 C   0  0  0  0  0  0  0  0  0  0  0  0
  1  2  1  0
  2  3  1  0
  2  4  1  0
  4  5  1  0
  4  6  1  0
  6  7  1  0
  6  8  2  0
  4  9  1  0
  9 10  1  6
  9 11  1  0
 11 12  1  0
M  ISO  3   1   1   3   3   7   2
M  END
>  <symbol>  (405) 
aMeIle

>  <m_abbr>  (405) 
aMeIle

>  <m_name>  (405) 
alpha-Methylisoleucine

>  <m_type>  (405) 
aa

>  <m_subtype>  (405) 
modified

>  <m_Rgroups>  (405) 
[H],[OH],[H]

>  <m_chem_types>  (405) 
1:backbone_n,2:backbone_c,3:backbone_n_mod

>  <m_activation_policy>  (405) 
canonical-sites-v1

$$$$

     RDKit          2D

 12 11  0  0  0  0  0  0  0  0999 V2000
   -0.3702    3.0188    0.0000 R   0  0  0  0  0  1  0  0  0  0  0  0
   -0.8410    1.5946    0.0000 N   0  0  0  0  0  0  0  0  0  0  0  0
   -2.3098    1.2902    0.0000 R   0  0  0  0  0  1  0  0  0  0  0  0
    0.1569    0.4747    0.0000 C   0  0  0  0  0  0  0  0  0  0  0  0
    1.6257    0.7791    0.0000 C   0  0  0  0  0  0  0  0  0  0  0  0
    2.6237   -0.3408    0.0000 C   0  0  0  0  0  0  0  0  0  0  0  0
    4.0925   -0.0364    0.0000 R   0  0  0  0  0  1  0  0  0  0  0  0
    2.1529   -1.7650    0.0000 O   0  0  0  0  0  0  0  0  0  0  0  0
   -0.3139   -0.9495    0.0000 C   0  0  0  0  0  0  0  0  0  0  0  0
   -1.7827   -1.2538    0.0000 C   0  0  0  0  0  0  0  0  0  0  0  0
   -2.7807   -0.1340    0.0000 C   0  0  0  0  0  0  0  0  0  0  0  0
   -2.2535   -2.6780    0.0000 C   0  0  0  0  0  0  0  0  0  0  0  0
  1  2  1  0
  2  3  1  0
  2  4  1  0
  4  5  1  6
  5  6  1  0
  6  7  1  0
  6  8  2  0
  4  9  1  0
  9 10  1  0
 10 11  1  0
 10 12  1  0
M  ISO  3   1   1   3   3   7   2
M  END
>  <symbol>  (406) 
b3hLeu

>  <m_abbr>  (406) 
b3hLeu

>  <m_name>  (406) 
beta3-Homoleucine

>  <m_type>  (406) 
aa

>  <m_subtype>  (406) 
modified

>  <m_Rgroups>  (406) 
[H],[OH],[H]

>  <m_chem_types>  (406) 
1:backbone_n,2:backbone_c,3:backbone_n_mod

>  <m_activation_policy>  (406) 
canonical-sites-v1

$$$$

     RDKit          2D

 11 10  0  0  0  0  0  0  0  0999 V2000
   -3.0813    0.0866    0.0000 R   0  0  0  0  0  1  0  0  0  0  0  0
   -1.8784   -0.8095    0.0000 N   0  0  0  0  0  0  0  0  0  0  0  0
   -2.0531   -2.2993    0.0000 R   0  0  0  0  0  1  0  0  0  0  0  0
   -0.5009   -0.2159    0.0000 C   0  0  0  0  0  0  0  0  0  0  0  0
    0.7020   -1.1120    0.0000 C   0  0  0  0  0  0  0  0  0  0  0  0
    2.0795   -0.5184    0.0000 C   0  0  0  0  0  0  0  0  0  0  0  0
    3.2824   -1.4145    0.0000 R   0  0  0  0  0  1  0  0  0  0  0  0
    2.2541    0.9714    0.0000 O   0  0  0  0  0  0  0  0  0  0  0  0
   -0.3263    1.2739    0.0000 C   0  0  0  0  0  0  0  0  0  0  0  0
    1.0513    1.8676    0.0000 C   0  0  0  0  0  0  0  0  0  0  0  0
   -1.5291    2.1701    0.0000 C   0  0  0  0  0  0  0  0  0  0  0  0
  1  2  1  0
  2  3  1  0
  2  4  1  0
  4  5  1  1
  5  6  1  0
  6  7  1  0
  6  8  2  0
  4  9  1  0
  9 10  1  0
  9 11  1  0
M  ISO  3   1   1   3   3   7   2
M  END
>  <symbol>  (407) 
b3hVal

>  <m_abbr>  (407) 
b3hVal

>  <m_name>  (407) 
beta3-Homovaline

>  <m_type>  (407) 
aa

>  <m_subtype>  (407) 
modified

>  <m_Rgroups>  (407) 
[H],[OH],[H]

>  <m_chem_types>  (407) 
1:backbone_n,2:backbone_c,3:backbone_n_mod

>  <m_activation_policy>  (407) 
canonical-sites-v1

$$$$

     RDKit          2D

 17 17  0  0  0  0  0  0  0  0999 V2000
   -2.7848    1.8016    0.0000 R   0  0  0  0  0  1  0  0  0  0  0  0
   -1.5847    0.9017    0.0000 N   0  0  0  0  0  0  0  0  0  0  0  0
   -0.2054    1.4911    0.0000 R   0  0  0  0  0  1  0  0  0  0  0  0
   -1.7640   -0.5875    0.0000 C   0  0  0  0  0  0  0  0  0  0  0  0
   -3.1433   -1.1769    0.0000 C   0  0  0  0  0  0  0  0  0  0  0  0
   -4.3434   -0.2771    0.0000 C   0  0  0  0  0  0  0  0  0  0  0  0
   -5.7228   -0.8665    0.0000 R   0  0  0  0  0  1  0  0  0  0  0  0
   -4.1642    1.2122    0.0000 O   0  0  0  0  0  0  0  0  0  0  0  0
   -0.5639   -1.4874    0.0000 C   0  0  0  0  0  0  0  0  0  0  0  0
    0.8155   -0.8980    0.0000 C   0  0  0  0  0  0  0  0  0  0  0  0
    0.9948    0.5912    0.0000 C   0  0  0  0  0  0  0  0  0  0  0  0
    2.3741    1.1806    0.0000 C   0  0  0  0  0  0  0  0  0  0  0  0
    3.5742    0.2808    0.0000 C   0  0  0  0  0  0  0  0  0  0  0  0
    4.9536    0.8702    0.0000 O   0  0  0  0  0  0  0  0  0  0  0  0
    6.1537   -0.0297    0.0000 R   0  0  0  0  0  1  0  0  0  0  0  0
    3.3950   -1.2085    0.0000 C   0  0  0  0  0  0  0  0  0  0  0  0
    2.0156   -1.7979    0.0000 C   0  0  0  0  0  0  0  0  0  0  0  0
  1  2  1  0
  2  3  1  0
  2  4  1  0
  4  5  1  1
  5  6  1  0
  6  7  1  0
  6  8  2  0
  4  9  1  0
  9 10  1  0
 10 11  1  0
 11 12  2  0
 12 13  1  0
 13 14  1  0
 14 15  1  0
 13 16  2  0
 16 17  1  0
 17 10  2  0
M  ISO  4   1   1   3   3   7   2  15   4
M  END
>  <symbol>  (408) 
b3hTyr

>  <m_abbr>  (408) 
b3hTyr

>  <m_name>  (408) 
beta3-Homotyrosine

>  <m_type>  (408) 
aa

>  <m_subtype>  (408) 
modified

>  <m_Rgroups>  (408) 
[H],[OH],[H],[H]

>  <m_chem_types>  (408) 
1:backbone_n,2:backbone_c,3:backbone_n_mod,4:aryl_phenol_o

>  <m_activation_policy>  (408) 
canonical-sites-v1

$$$$

     RDKit          2D

 11 10  0  0  0  0  0  0  0  0999 V2000
   -3.0682    1.2990    0.0000 R   0  0  0  0  0  1  0  0  0  0  0  0
   -2.3182    0.0000    0.0000 N   0  0  0  0  0  0  0  0  0  0  0  0
   -3.0682   -1.2990    0.0000 R   0  0  0  0  0  1  0  0  0  0  0  0
   -0.8182   -0.0000    0.0000 C   0  0  0  0  0  0  0  0  0  0  0  0
   -0.0682    1.2990    0.0000 C   0  0  0  0  0  0  0  0  0  0  0  0
    1.4318    1.2990    0.0000 O   0  0  0  0  0  0  0  0  0  0  0  0
    2.1818    2.5981    0.0000 R   0  0  0  0  0  1  0  0  0  0  0  0
   -0.0682   -1.2990    0.0000 C   0  0  0  0  0  0  0  0  0  0  0  0
    1.4318   -1.2990    0.0000 C   0  0  0  0  0  0  0  0  0  0  0  0
    2.1818   -2.5981    0.0000 R   0  0  0  0  0  1  0  0  0  0  0  0
    2.1818    0.0000    0.0000 O   0  0  0  0  0  0  0  0  0  0  0  0
  1  2  1  0
  2  3  1  0
  2  4  1  0
  4  5  1  1
  5  6  1  0
  6  7  1  0
  4  8  1  0
  8  9  1  0
  9 10  1  0
  9 11  2  0
M  ISO  4   1   1   3   3   7   4  10   2
M  END
>  <symbol>  (409) 
b3hSer

>  <m_abbr>  (409) 
b3hSer

>  <m_name>  (409) 
beta3-Homoserine

>  <m_type>  (409) 
aa

>  <m_subtype>  (409) 
modified

>  <m_Rgroups>  (409) 
[H],[OH],[H],[H]

>  <m_chem_types>  (409) 
1:backbone_n,2:backbone_c,3:backbone_n_mod,4:hydroxyl

>  <m_activation_policy>  (409) 
canonical-sites-v1

$$$$

     RDKit          2D

 15 14  0  0  0  0  0  0  0  0999 V2000
   -4.8121   -0.6112    0.0000 R   0  0  0  0  0  1  0  0  0  0  0  0
   -3.4412   -1.2199    0.0000 N   0  0  0  0  0  0  0  0  0  0  0  0
   -3.2829   -2.7115    0.0000 R   0  0  0  0  0  1  0  0  0  0  0  0
   -2.2285   -0.3370    0.0000 C   0  0  0  0  0  0  0  0  0  0  0  0
   -0.8576   -0.9458    0.0000 C   0  0  0  0  0  0  0  0  0  0  0  0
    0.3550   -0.0629    0.0000 C   0  0  0  0  0  0  0  0  0  0  0  0
    1.7260   -0.6716    0.0000 C   0  0  0  0  0  0  0  0  0  0  0  0
    2.9386    0.2113    0.0000 C   0  0  0  0  0  0  0  0  0  0  0  0
    4.3095   -0.3975    0.0000 N   0  0  0  0  0  0  0  0  0  0  0  0
    5.5222    0.4854    0.0000 R   0  0  0  0  0  1  0  0  0  0  0  0
    4.4678   -1.8891    0.0000 R   0  0  0  0  0  1  0  0  0  0  0  0
   -2.3868    1.1546    0.0000 C   0  0  0  0  0  0  0  0  0  0  0  0
   -1.1742    2.0375    0.0000 C   0  0  0  0  0  0  0  0  0  0  0  0
   -1.3324    3.5291    0.0000 R   0  0  0  0  0  1  0  0  0  0  0  0
    0.1968    1.4287    0.0000 O   0  0  0  0  0  0  0  0  0  0  0  0
  1  2  1  0
  2  3  1  0
  2  4  1  0
  4  5  1  6
  5  6  1  0
  6  7  1  0
  7  8  1  0
  8  9  1  0
  9 10  1  0
  9 11  1  0
  4 12  1  0
 12 13  1  0
 13 14  1  0
 13 15  2  0
M  ISO  5   1   1   3   3  10   4  11   5  14   2
M  END
>  <symbol>  (410) 
b3hLys

>  <m_abbr>  (410) 
b3hLys

>  <m_name>  (410) 
beta3-Homolysine

>  <m_type>  (410) 
aa

>  <m_subtype>  (410) 
modified

>  <m_Rgroups>  (410) 
[H],[OH],[H],[H],[H]

>  <m_chem_types>  (410) 
1:backbone_n,2:backbone_c,3:backbone_n_mod,4:amine_primary,5:amine_primary

>  <m_activation_policy>  (410) 
canonical-sites-v1

$$$$

     RDKit          2D

 13 12  0  0  0  0  0  0  0  0999 V2000
   -3.8971   -0.1731    0.0000 R   0  0  0  0  0  1  0  0  0  0  0  0
   -2.5981   -0.9231    0.0000 N   0  0  0  0  0  0  0  0  0  0  0  0
   -2.5981   -2.4231    0.0000 R   0  0  0  0  0  1  0  0  0  0  0  0
   -1.2990   -0.1731    0.0000 C   0  0  0  0  0  0  0  0  0  0  0  0
   -0.0000   -0.9231    0.0000 C   0  0  0  0  0  0  0  0  0  0  0  0
    1.2990   -0.1731    0.0000 C   0  0  0  0  0  0  0  0  0  0  0  0
    2.5981   -0.9231    0.0000 C   0  0  0  0  0  0  0  0  0  0  0  0
    3.8971   -0.1731    0.0000 R   0  0  0  0  0  1  0  0  0  0  0  0
    2.5981   -2.4231    0.0000 O   0  0  0  0  0  0  0  0  0  0  0  0
   -1.2990    1.3269    0.0000 C   0  0  0  0  0  0  0  0  0  0  0  0
   -0.0000    2.0769    0.0000 C   0  0  0  0  0  0  0  0  0  0  0  0
   -0.0000    3.5769    0.0000 R   0  0  0  0  0  1  0  0  0  0  0  0
    1.2990    1.3269    0.0000 O   0  0  0  0  0  0  0  0  0  0  0  0
  1  2  1  0
  2  3  1  0
  2  4  1  0
  4  5  1  6
  5  6  1  0
  6  7  1  0
  7  8  1  0
  7  9  2  0
  4 10  1  0
 10 11  1  0
 11 12  1  0
 11 13  2  0
M  ISO  4   1   1   3   3   8   4  12   2
M  END
>  <symbol>  (411) 
b3hGlu

>  <m_abbr>  (411) 
b3hGlu

>  <m_name>  (411) 
beta3-Homoglutamic acid

>  <m_type>  (411) 
aa

>  <m_subtype>  (411) 
modified

>  <m_Rgroups>  (411) 
[H],[OH],[H],[OH]

>  <m_chem_types>  (411) 
1:backbone_n,2:backbone_c,3:backbone_n_mod,4:carboxyl

>  <m_activation_policy>  (411) 
canonical-sites-v1

$$$$

     RDKit          2D

 12 11  0  0  0  0  0  0  0  0999 V2000
   -2.3098   -1.2902    0.0000 R   0  0  0  0  0  1  0  0  0  0  0  0
   -0.8410   -1.5946    0.0000 N   0  0  0  0  0  0  0  0  0  0  0  0
   -0.3702   -3.0188    0.0000 R   0  0  0  0  0  1  0  0  0  0  0  0
    0.1569   -0.4747    0.0000 C   0  0  0  0  0  0  0  0  0  0  0  0
    1.6257   -0.7791    0.0000 C   0  0  0  0  0  0  0  0  0  0  0  0
    2.6237    0.3408    0.0000 C   0  0  0  0  0  0  0  0  0  0  0  0
    4.0925    0.0364    0.0000 R   0  0  0  0  0  1  0  0  0  0  0  0
    2.1529    1.7650    0.0000 O   0  0  0  0  0  0  0  0  0  0  0  0
   -0.3139    0.9495    0.0000 C   0  0  0  0  0  0  0  0  0  0  0  0
   -1.7827    1.2538    0.0000 C   0  0  0  0  0  0  0  0  0  0  0  0
   -2.7807    0.1340    0.0000 R   0  0  0  0  0  1  0  0  0  0  0  0
   -2.2535    2.6780    0.0000 O   0  0  0  0  0  0  0  0  0  0  0  0
  1  2  1  0
  2  3  1  0
  2  4  1  0
  4  5  1  0
  5  6  1  0
  6  7  1  0
  6  8  2  0
  4  9  1  0
  9 10  1  0
 10 11  1  0
 10 12  2  0
M  ISO  4   1   1   3   3   7   2  11   4
M  END
>  <symbol>  (412) 
b3hAsp

>  <m_abbr>  (412) 
b3hAsp

>  <m_name>  (412) 
beta3-Homoaspartic acid

>  <m_type>  (412) 
aa

>  <m_subtype>  (412) 
modified

>  <m_Rgroups>  (412) 
[H],[OH],[H],[OH]

>  <m_chem_types>  (412) 
1:backbone_n,2:backbone_c,3:backbone_n_mod,4:carboxyl

>  <m_activation_policy>  (412) 
canonical-sites-v1

$$$$

     RDKit          2D

  9  8  0  0  0  0  0  0  0  0999 V2000
   -2.2062    1.7302    0.0000 R   0  0  0  0  0  1  0  0  0  0  0  0
   -1.9487    0.2525    0.0000 N   0  0  0  0  0  0  0  0  0  0  0  0
   -3.0997   -0.7094    0.0000 R   0  0  0  0  0  1  0  0  0  0  0  0
   -0.5402   -0.2633    0.0000 C   0  0  0  0  0  0  0  0  0  0  0  0
   -0.2826   -1.7410    0.0000 C   0  0  0  0  0  0  0  0  0  0  0  0
    0.6108    0.6986    0.0000 C   0  0  0  0  0  0  0  0  0  0  0  0
    2.0193    0.1828    0.0000 C   0  0  0  0  0  0  0  0  0  0  0  0
    3.1703    1.1447    0.0000 R   0  0  0  0  0  1  0  0  0  0  0  0
    2.2769   -1.2950    0.0000 O   0  0  0  0  0  0  0  0  0  0  0  0
  1  2  1  0
  2  3  1  0
  2  4  1  0
  4  5  1  6
  4  6  1  0
  6  7  1  0
  7  8  1  0
  7  9  2  0
M  ISO  3   1   1   3   3   8   2
M  END
>  <symbol>  (413) 
b3hAla

>  <m_abbr>  (413) 
b3hAla

>  <m_name>  (413) 
beta3-Homoalanine

>  <m_type>  (413) 
aa

>  <m_subtype>  (413) 
modified

>  <m_Rgroups>  (413) 
[H],[OH],[H]

>  <m_chem_types>  (413) 
1:backbone_n,2:backbone_c,3:backbone_n_mod

>  <m_activation_policy>  (413) 
canonical-sites-v1

$$$$

     RDKit          2D

 12 11  0  0  0  0  0  0  0  0999 V2000
   -3.6711    0.4585    0.0000 R   0  0  0  0  0  1  0  0  0  0  0  0
   -2.5730   -0.5633    0.0000 N   0  0  0  0  0  0  0  0  0  0  0  0
   -2.9088   -2.0252    0.0000 R   0  0  0  0  0  1  0  0  0  0  0  0
   -1.1390   -0.1231    0.0000 C   0  0  0  0  0  0  0  0  0  0  0  0
   -0.0408   -1.1449    0.0000 C   0  0  0  0  0  0  0  0  0  0  0  0
    1.3931   -0.7048    0.0000 C   0  0  0  0  0  0  0  0  0  0  0  0
    2.4913   -1.7265    0.0000 C   0  0  0  0  0  0  0  0  0  0  0  0
    3.9253   -1.2864    0.0000 C   0  0  0  0  0  0  0  0  0  0  0  0
   -0.8032    1.3388    0.0000 C   0  0  0  0  0  0  0  0  0  0  0  0
    0.6308    1.7789    0.0000 C   0  0  0  0  0  0  0  0  0  0  0  0
    0.9666    3.2409    0.0000 R   0  0  0  0  0  1  0  0  0  0  0  0
    1.7289    0.7572    0.0000 O   0  0  0  0  0  0  0  0  0  0  0  0
  1  2  1  0
  2  3  1  0
  2  4  1  0
  4  5  1  6
  5  6  1  0
  6  7  1  0
  7  8  1  0
  4  9  1  0
  9 10  1  0
 10 11  1  0
 10 12  2  0
M  ISO  3   1   1   3   3  11   2
M  END
>  <symbol>  (414) 
b3hNle

>  <m_abbr>  (414) 
b3hNle

>  <m_name>  (414) 
beta3-Homonorleucine

>  <m_type>  (414) 
aa

>  <m_subtype>  (414) 
modified

>  <m_Rgroups>  (414) 
[H],[OH],[H]

>  <m_chem_types>  (414) 
1:backbone_n,2:backbone_c,3:backbone_n_mod

>  <m_activation_policy>  (414) 
canonical-sites-v1

$$$$

     RDKit          2D

 10 10  0  0  0  0  0  0  0  0999 V2000
   -0.6492   -2.4549    0.0000 R   0  0  0  0  0  1  0  0  0  0  0  0
    0.1568   -1.1898    0.0000 N   0  0  0  0  0  0  0  0  0  0  0  0
    1.6540   -1.0983    0.0000 C   0  0  0  0  0  0  0  0  0  0  0  0
    2.0296    0.3539    0.0000 C   0  0  0  0  0  0  0  0  0  0  0  0
    3.4252    0.9037    0.0000 F   0  0  0  0  0  0  0  0  0  0  0  0
    0.7645    1.1599    0.0000 C   0  0  0  0  0  0  0  0  0  0  0  0
   -0.3930    0.2058    0.0000 C   0  0  0  0  0  0  0  0  0  0  0  0
   -1.8452    0.5814    0.0000 C   0  0  0  0  0  0  0  0  0  0  0  0
   -2.2460    2.0268    0.0000 R   0  0  0  0  0  1  0  0  0  0  0  0
   -2.8966   -0.4885    0.0000 O   0  0  0  0  0  0  0  0  0  0  0  0
  1  2  1  0
  2  3  1  0
  3  4  1  0
  4  5  1  6
  4  6  1  0
  6  7  1  0
  7  8  1  6
  8  9  1  0
  8 10  2  0
  7  2  1  0
M  ISO  2   1   1   9   2
M  END
>  <symbol>  (415) 
Pro_4F_t

>  <m_abbr>  (415) 
Pro_4F_t

>  <m_name>  (415) 
trans-4-Fluoroproline (2S,4R)

>  <m_type>  (415) 
aa

>  <m_subtype>  (415) 
modified

>  <m_Rgroups>  (415) 
[H],[OH]

>  <m_chem_types>  (415) 
1:backbone_n,2:backbone_c

>  <m_activation_policy>  (415) 
canonical-sites-v1

$$$$

     RDKit          2D

 10 10  0  0  0  0  0  0  0  0999 V2000
   -0.6492   -2.4549    0.0000 R   0  0  0  0  0  1  0  0  0  0  0  0
    0.1568   -1.1898    0.0000 N   0  0  0  0  0  0  0  0  0  0  0  0
    1.6540   -1.0983    0.0000 C   0  0  0  0  0  0  0  0  0  0  0  0
    2.0296    0.3539    0.0000 C   0  0  0  0  0  0  0  0  0  0  0  0
    3.4252    0.9037    0.0000 F   0  0  0  0  0  0  0  0  0  0  0  0
    0.7645    1.1599    0.0000 C   0  0  0  0  0  0  0  0  0  0  0  0
   -0.3930    0.2058    0.0000 C   0  0  0  0  0  0  0  0  0  0  0  0
   -1.8452    0.5814    0.0000 C   0  0  0  0  0  0  0  0  0  0  0  0
   -2.2460    2.0268    0.0000 R   0  0  0  0  0  1  0  0  0  0  0  0
   -2.8966   -0.4885    0.0000 O   0  0  0  0  0  0  0  0  0  0  0  0
  1  2  1  0
  2  3  1  0
  3  4  1  0
  4  5  1  1
  4  6  1  0
  6  7  1  0
  7  8  1  6
  8  9  1  0
  8 10  2  0
  7  2  1  0
M  ISO  2   1   1   9   2
M  END
>  <symbol>  (416) 
Pro_4F_c

>  <m_abbr>  (416) 
Pro_4F_c

>  <m_name>  (416) 
cis-4-Fluoroproline (2S,4S)

>  <m_type>  (416) 
aa

>  <m_subtype>  (416) 
modified

>  <m_Rgroups>  (416) 
[H],[OH]

>  <m_chem_types>  (416) 
1:backbone_n,2:backbone_c

>  <m_activation_policy>  (416) 
canonical-sites-v1

$$$$

     RDKit          2D

 13 14  0  0  0  0  0  0  0  0999 V2000
   -1.0632   -2.3910    0.0000 R   0  0  0  0  0  1  0  0  0  0  0  0
   -0.5351   -0.9871    0.0000 N   0  0  0  0  0  0  0  0  0  0  0  0
    0.9112   -0.5891    0.0000 C   0  0  0  0  0  0  0  0  0  0  0  0
    2.1746   -1.3976    0.0000 C   0  0  0  0  0  0  0  0  0  0  0  0
    3.5065   -0.7076    0.0000 C   0  0  0  0  0  0  0  0  0  0  0  0
    3.5750    0.7908    0.0000 C   0  0  0  0  0  0  0  0  0  0  0  0
    2.3115    1.5993    0.0000 C   0  0  0  0  0  0  0  0  0  0  0  0
    0.9796    0.9093    0.0000 C   0  0  0  0  0  0  0  0  0  0  0  0
   -0.4244    1.4375    0.0000 C   0  0  0  0  0  0  0  0  0  0  0  0
   -1.3605    0.2654    0.0000 C   0  0  0  0  0  0  0  0  0  0  0  0
   -2.8589    0.3338    0.0000 C   0  0  0  0  0  0  0  0  0  0  0  0
   -3.5489    1.6657    0.0000 R   0  0  0  0  0  1  0  0  0  0  0  0
   -3.6674   -0.9296    0.0000 O   0  0  0  0  0  0  0  0  0  0  0  0
  1  2  1  0
  2  3  1  0
  3  4  2  0
  4  5  1  0
  5  6  2  0
  6  7  1  0
  7  8  2  0
  8  9  1  0
  9 10  1  0
 10 11  1  6
 11 12  1  0
 11 13  2  0
 10  2  1  0
  8  3  1  0
M  ISO  2   1   1  12   2
M  END
>  <symbol>  (417) 
Ind

>  <m_abbr>  (417) 
Ind

>  <m_name>  (417) 
L-Indoline-2-carboxylic acid

>  <m_type>  (417) 
aa

>  <m_subtype>  (417) 
modified

>  <m_Rgroups>  (417) 
[H],[OH]

>  <m_chem_types>  (417) 
1:backbone_n,2:backbone_c

>  <m_activation_policy>  (417) 
canonical-sites-v1

$$$$

     RDKit          2D

 13 12  0  0  0  0  0  0  0  0999 V2000
   -3.9663   -0.5077    0.0000 R   0  0  0  0  0  1  0  0  0  0  0  0
   -2.5665   -1.0465    0.0000 N   0  0  0  0  0  0  0  0  0  0  0  0
   -2.3331   -2.5283    0.0000 R   0  0  0  0  0  1  0  0  0  0  0  0
   -1.3999   -0.1036    0.0000 C   0  0  0  0  0  0  0  0  0  0  0  0
   -0.0000   -0.6424    0.0000 C   0  0  0  0  0  0  0  0  0  0  0  0
    1.1666    0.3005    0.0000 C   0  0  0  0  0  0  0  0  0  0  0  0
    2.5665   -0.2383    0.0000 C   0  0  0  0  0  0  0  0  0  0  0  0
    2.7998   -1.7201    0.0000 O   0  0  0  0  0  0  0  0  0  0  0  0
    3.7330    0.7046    0.0000 O   0  0  0  0  0  0  0  0  0  0  0  0
    5.1329    0.1658    0.0000 C   0  0  0  0  0  0  0  0  0  0  0  0
   -1.6332    1.3781    0.0000 C   0  0  0  0  0  0  0  0  0  0  0  0
   -0.4666    2.3211    0.0000 R   0  0  0  0  0  1  0  0  0  0  0  0
   -3.0331    1.9169    0.0000 O   0  0  0  0  0  0  0  0  0  0  0  0
  1  2  1  0
  2  3  1  0
  2  4  1  0
  4  5  1  6
  5  6  1  0
  6  7  1  0
  7  8  2  0
  7  9  1  0
  9 10  1  0
  4 11  1  0
 11 12  1  0
 11 13  2  0
M  ISO  3   1   1   3   3  12   2
M  END
>  <symbol>  (418) 
Glu_OMe

>  <m_abbr>  (418) 
Glu_OMe

>  <m_name>  (418) 
L-Glu gamma-methyl ester

>  <m_type>  (418) 
aa

>  <m_subtype>  (418) 
modified

>  <m_Rgroups>  (418) 
[H],[OH],[H]

>  <m_chem_types>  (418) 
1:backbone_n,2:backbone_c,3:backbone_n_mod

>  <m_activation_policy>  (418) 
canonical-sites-v1

$$$$

     RDKit          2D

 16 15  0  0  0  0  0  0  0  0999 V2000
   -5.0189   -0.4777    0.0000 R   0  0  0  0  0  1  0  0  0  0  0  0
   -3.6220   -1.0242    0.0000 N   0  0  0  0  0  0  0  0  0  0  0  0
   -3.3968   -2.5071    0.0000 R   0  0  0  0  0  1  0  0  0  0  0  0
   -2.4503   -0.0876    0.0000 C   0  0  0  0  0  0  0  0  0  0  0  0
   -1.0534   -0.6341    0.0000 C   0  0  0  0  0  0  0  0  0  0  0  0
    0.1183    0.3024    0.0000 C   0  0  0  0  0  0  0  0  0  0  0  0
    1.5152   -0.2440    0.0000 C   0  0  0  0  0  0  0  0  0  0  0  0
    1.7404   -1.7270    0.0000 O   0  0  0  0  0  0  0  0  0  0  0  0
    2.6869    0.6925    0.0000 O   0  0  0  0  0  0  0  0  0  0  0  0
    4.0839    0.1460    0.0000 C   0  0  0  0  0  0  0  0  0  0  0  0
    4.6303    1.5429    0.0000 C   0  0  0  0  0  0  0  0  0  0  0  0
    3.5374   -1.2509    0.0000 C   0  0  0  0  0  0  0  0  0  0  0  0
    5.4808   -0.4004    0.0000 C   0  0  0  0  0  0  0  0  0  0  0  0
   -2.6755    1.3954    0.0000 C   0  0  0  0  0  0  0  0  0  0  0  0
   -1.5038    2.3319    0.0000 R   0  0  0  0  0  1  0  0  0  0  0  0
   -4.0724    1.9418    0.0000 O   0  0  0  0  0  0  0  0  0  0  0  0
  1  2  1  0
  2  3  1  0
  2  4  1  0
  4  5  1  6
  5  6  1  0
  6  7  1  0
  7  8  2  0
  7  9  1  0
  9 10  1  0
 10 11  1  0
 10 12  1  0
 10 13  1  0
  4 14  1  0
 14 15  1  0
 14 16  2  0
M  ISO  3   1   1   3   3  15   2
M  END
>  <symbol>  (419) 
Glu_OtBu

>  <m_abbr>  (419) 
Glu_OtBu

>  <m_name>  (419) 
L-Glu gamma-tert-butyl ester

>  <m_type>  (419) 
aa

>  <m_subtype>  (419) 
modified

>  <m_Rgroups>  (419) 
[H],[OH],[H]

>  <m_chem_types>  (419) 
1:backbone_n,2:backbone_c,3:backbone_n_mod

>  <m_activation_policy>  (419) 
canonical-sites-v1

$$$$

     RDKit          2D

 19 19  0  0  0  0  0  0  0  0999 V2000
   -5.0156    2.3485    0.0000 R   0  0  0  0  0  1  0  0  0  0  0  0
   -3.7561    1.5338    0.0000 N   0  0  0  0  0  0  0  0  0  0  0  0
   -2.4208    2.2172    0.0000 R   0  0  0  0  0  1  0  0  0  0  0  0
   -3.8318    0.0357    0.0000 C   0  0  0  0  0  0  0  0  0  0  0  0
   -2.5723   -0.7789    0.0000 C   0  0  0  0  0  0  0  0  0  0  0  0
   -1.2371   -0.0955    0.0000 C   0  0  0  0  0  0  0  0  0  0  0  0
    0.0224   -0.9102    0.0000 C   0  0  0  0  0  0  0  0  0  0  0  0
   -0.0534   -2.4083    0.0000 O   0  0  0  0  0  0  0  0  0  0  0  0
    1.3577   -0.2268    0.0000 O   0  0  0  0  0  0  0  0  0  0  0  0
    2.6172   -1.0414    0.0000 C   0  0  0  0  0  0  0  0  0  0  0  0
    3.9524   -0.3580    0.0000 C   0  0  0  0  0  0  0  0  0  0  0  0
    4.0282    1.1401    0.0000 C   0  0  0  0  0  0  0  0  0  0  0  0
    5.3635    1.8235    0.0000 C   0  0  0  0  0  0  0  0  0  0  0  0
    6.6230    1.0088    0.0000 C   0  0  0  0  0  0  0  0  0  0  0  0
    6.5472   -0.4893    0.0000 C   0  0  0  0  0  0  0  0  0  0  0  0
    5.2119   -1.1727    0.0000 C   0  0  0  0  0  0  0  0  0  0  0  0
   -5.1671   -0.6477    0.0000 C   0  0  0  0  0  0  0  0  0  0  0  0
   -6.4266    0.1670    0.0000 R   0  0  0  0  0  1  0  0  0  0  0  0
   -5.2429   -2.1458    0.0000 O   0  0  0  0  0  0  0  0  0  0  0  0
  1  2  1  0
  2  3  1  0
  2  4  1  0
  4  5  1  1
  5  6  1  0
  6  7  1  0
  7  8  2  0
  7  9  1  0
  9 10  1  0
 10 11  1  0
 11 12  2  0
 12 13  1  0
 13 14  2  0
 14 15  1  0
 15 16  2  0
  4 17  1  0
 17 18  1  0
 17 19  2  0
 16 11  1  0
M  ISO  3   1   1   3   3  18   2
M  END
>  <symbol>  (420) 
Glu_OBn

>  <m_abbr>  (420) 
Glu_OBn

>  <m_name>  (420) 
L-Glu gamma-benzyl ester

>  <m_type>  (420) 
aa

>  <m_subtype>  (420) 
modified

>  <m_Rgroups>  (420) 
[H],[OH],[H]

>  <m_chem_types>  (420) 
1:backbone_n,2:backbone_c,3:backbone_n_mod

>  <m_activation_policy>  (420) 
canonical-sites-v1

$$$$

     RDKit          2D

 15 14  0  0  0  0  0  0  0  0999 V2000
   -4.4167   -0.2500    0.0000 R   0  0  0  0  0  1  0  0  0  0  0  0
   -3.1177   -1.0000    0.0000 N   0  0  0  0  0  0  0  0  0  0  0  0
   -3.1177   -2.5000    0.0000 R   0  0  0  0  0  1  0  0  0  0  0  0
   -1.8187   -0.2500    0.0000 C   0  0  0  0  0  0  0  0  0  0  0  0
   -0.5196   -1.0000    0.0000 C   0  0  0  0  0  0  0  0  0  0  0  0
    0.7794   -0.2500    0.0000 C   0  0  0  0  0  0  0  0  0  0  0  0
    0.7794    1.2500    0.0000 O   0  0  0  0  0  0  0  0  0  0  0  0
    2.0785   -1.0000    0.0000 O   0  0  0  0  0  0  0  0  0  0  0  0
    3.3775   -0.2500    0.0000 C   0  0  0  0  0  0  0  0  0  0  0  0
    4.1275   -1.5490    0.0000 C   0  0  0  0  0  0  0  0  0  0  0  0
    2.6275    1.0490    0.0000 C   0  0  0  0  0  0  0  0  0  0  0  0
    4.6765    0.5000    0.0000 C   0  0  0  0  0  0  0  0  0  0  0  0
   -1.8187    1.2500    0.0000 C   0  0  0  0  0  0  0  0  0  0  0  0
   -0.5196    2.0000    0.0000 R   0  0  0  0  0  1  0  0  0  0  0  0
   -3.1177    2.0000    0.0000 O   0  0  0  0  0  0  0  0  0  0  0  0
  1  2  1  0
  2  3  1  0
  2  4  1  0
  4  5  1  6
  5  6  1  0
  6  7  2  0
  6  8  1  0
  8  9  1  0
  9 10  1  0
  9 11  1  0
  9 12  1  0
  4 13  1  0
 13 14  1  0
 13 15  2  0
M  ISO  3   1   1   3   3  14   2
M  END
>  <symbol>  (421) 
Asp_OtBu

>  <m_abbr>  (421) 
Asp_OtBu

>  <m_name>  (421) 
L-Asp beta-tert-butyl ester

>  <m_type>  (421) 
aa

>  <m_subtype>  (421) 
modified

>  <m_Rgroups>  (421) 
[H],[OH],[H]

>  <m_chem_types>  (421) 
1:backbone_n,2:backbone_c,3:backbone_n_mod

>  <m_activation_policy>  (421) 
canonical-sites-v1

$$$$

     RDKit          2D

 18 18  0  0  0  0  0  0  0  0999 V2000
   -4.9015   -1.6339    0.0000 R   0  0  0  0  0  1  0  0  0  0  0  0
   -3.4785   -1.1595    0.0000 N   0  0  0  0  0  0  0  0  0  0  0  0
   -2.3562   -2.1547    0.0000 R   0  0  0  0  0  1  0  0  0  0  0  0
   -3.1778    0.3100    0.0000 C   0  0  0  0  0  0  0  0  0  0  0  0
   -1.7548    0.7844    0.0000 C   0  0  0  0  0  0  0  0  0  0  0  0
   -0.6325   -0.2108    0.0000 C   0  0  0  0  0  0  0  0  0  0  0  0
   -0.9332   -1.6804    0.0000 O   0  0  0  0  0  0  0  0  0  0  0  0
    0.7906    0.2635    0.0000 O   0  0  0  0  0  0  0  0  0  0  0  0
    1.9129   -0.7317    0.0000 C   0  0  0  0  0  0  0  0  0  0  0  0
    3.3359   -0.2573    0.0000 C   0  0  0  0  0  0  0  0  0  0  0  0
    3.6366    1.2122    0.0000 C   0  0  0  0  0  0  0  0  0  0  0  0
    5.0596    1.6866    0.0000 C   0  0  0  0  0  0  0  0  0  0  0  0
    6.1819    0.6914    0.0000 C   0  0  0  0  0  0  0  0  0  0  0  0
    5.8812   -0.7781    0.0000 C   0  0  0  0  0  0  0  0  0  0  0  0
    4.4582   -1.2525    0.0000 C   0  0  0  0  0  0  0  0  0  0  0  0
   -4.3001    1.3052    0.0000 C   0  0  0  0  0  0  0  0  0  0  0  0
   -5.7231    0.8309    0.0000 R   0  0  0  0  0  1  0  0  0  0  0  0
   -3.9994    2.7748    0.0000 O   0  0  0  0  0  0  0  0  0  0  0  0
  1  2  1  0
  2  3  1  0
  2  4  1  0
  4  5  1  6
  5  6  1  0
  6  7  2  0
  6  8  1  0
  8  9  1  0
  9 10  1  0
 10 11  2  0
 11 12  1  0
 12 13  2  0
 13 14  1  0
 14 15  2  0
  4 16  1  0
 16 17  1  0
 16 18  2  0
 15 10  1  0
M  ISO  3   1   1   3   3  17   2
M  END
>  <symbol>  (422) 
Asp_OBn

>  <m_abbr>  (422) 
Asp_OBn

>  <m_name>  (422) 
L-Asp beta-benzyl ester

>  <m_type>  (422) 
aa

>  <m_subtype>  (422) 
modified

>  <m_Rgroups>  (422) 
[H],[OH],[H]

>  <m_chem_types>  (422) 
1:backbone_n,2:backbone_c,3:backbone_n_mod

>  <m_activation_policy>  (422) 
canonical-sites-v1

$$$$

     RDKit          2D

  9  8  0  0  0  0  0  0  0  0999 V2000
   -3.8971    0.7500    0.0000 R   0  0  0  0  0  1  0  0  0  0  0  0
   -2.5981    0.0000    0.0000 N   0  0  0  0  0  0  0  0  0  0  0  0
   -2.5981   -1.5000    0.0000 R   0  0  0  0  0  1  0  0  0  0  0  0
   -1.2990    0.7500    0.0000 C   0  0  0  0  0  0  0  0  0  0  0  0
    0.0000    0.0000    0.0000 C   0  0  0  0  0  0  0  0  0  0  0  0
    1.2990    0.7500    0.0000 C   0  0  0  0  0  0  0  0  0  0  0  0
    2.5981    0.0000    0.0000 C   0  0  0  0  0  0  0  0  0  0  0  0
    3.8971    0.7500    0.0000 R   0  0  0  0  0  1  0  0  0  0  0  0
    2.5981   -1.5000    0.0000 O   0  0  0  0  0  0  0  0  0  0  0  0
  1  2  1  0
  2  3  1  0
  2  4  1  0
  4  5  1  0
  5  6  1  0
  6  7  1  0
  7  8  1  0
  7  9  2  0
M  ISO  3   1   1   3   3   8   2
M  END
>  <symbol>  (423) 
GABA

>  <m_abbr>  (423) 
GABA

>  <m_name>  (423) 
gamma-Aminobutyric acid (4-aminobutyric acid)

>  <m_type>  (423) 
linker

>  <m_subtype>  (423) 
linker

>  <m_Rgroups>  (423) 
[H],[OH],[H]

>  <m_chem_types>  (423) 
1:backbone_n,2:backbone_c,3:backbone_n_mod

>  <m_activation_policy>  (423) 
canonical-sites-v1

$$$$

     RDKit          2D

 10  9  0  0  0  0  0  0  0  0999 V2000
   -4.4693    0.9153    0.0000 R   0  0  0  0  0  1  0  0  0  0  0  0
   -3.2691    0.0155    0.0000 N   0  0  0  0  0  0  0  0  0  0  0  0
   -3.4483   -1.4737    0.0000 R   0  0  0  0  0  1  0  0  0  0  0  0
   -1.8898    0.6050    0.0000 C   0  0  0  0  0  0  0  0  0  0  0  0
   -0.6897   -0.2947    0.0000 C   0  0  0  0  0  0  0  0  0  0  0  0
    0.6897    0.2947    0.0000 C   0  0  0  0  0  0  0  0  0  0  0  0
    1.8898   -0.6050    0.0000 C   0  0  0  0  0  0  0  0  0  0  0  0
    3.2691   -0.0155    0.0000 C   0  0  0  0  0  0  0  0  0  0  0  0
    4.4693   -0.9153    0.0000 R   0  0  0  0  0  1  0  0  0  0  0  0
    3.4483    1.4737    0.0000 O   0  0  0  0  0  0  0  0  0  0  0  0
  1  2  1  0
  2  3  1  0
  2  4  1  0
  4  5  1  0
  5  6  1  0
  6  7  1  0
  7  8  1  0
  8  9  1  0
  8 10  2  0
M  ISO  3   1   1   3   3   9   2
M  END
>  <symbol>  (424) 
5Ava

>  <m_abbr>  (424) 
5Ava

>  <m_name>  (424) 
5-Aminopentanoic acid (delta-aminovaleric acid)

>  <m_type>  (424) 
linker

>  <m_subtype>  (424) 
linker

>  <m_Rgroups>  (424) 
[H],[OH],[H]

>  <m_chem_types>  (424) 
1:backbone_n,2:backbone_c,3:backbone_n_mod

>  <m_activation_policy>  (424) 
canonical-sites-v1

$$$$

     RDKit          2D

 11 10  0  0  0  0  0  0  0  0999 V2000
   -5.1962    0.6818    0.0000 R   0  0  0  0  0  1  0  0  0  0  0  0
   -3.8971   -0.0682    0.0000 N   0  0  0  0  0  0  0  0  0  0  0  0
   -3.8971   -1.5682    0.0000 R   0  0  0  0  0  1  0  0  0  0  0  0
   -2.5981    0.6818    0.0000 C   0  0  0  0  0  0  0  0  0  0  0  0
   -1.2990   -0.0682    0.0000 C   0  0  0  0  0  0  0  0  0  0  0  0
   -0.0000    0.6818    0.0000 C   0  0  0  0  0  0  0  0  0  0  0  0
    1.2990   -0.0682    0.0000 C   0  0  0  0  0  0  0  0  0  0  0  0
    2.5981    0.6818    0.0000 C   0  0  0  0  0  0  0  0  0  0  0  0
    3.8971   -0.0682    0.0000 C   0  0  0  0  0  0  0  0  0  0  0  0
    5.1962    0.6818    0.0000 R   0  0  0  0  0  1  0  0  0  0  0  0
    3.8971   -1.5682    0.0000 O   0  0  0  0  0  0  0  0  0  0  0  0
  1  2  1  0
  2  3  1  0
  2  4  1  0
  4  5  1  0
  5  6  1  0
  6  7  1  0
  7  8  1  0
  8  9  1  0
  9 10  1  0
  9 11  2  0
M  ISO  3   1   1   3   3  10   2
M  END
>  <symbol>  (425) 
6Ahx

>  <m_abbr>  (425) 
6Ahx

>  <m_name>  (425) 
6-Aminohexanoic acid (epsilon-aminocaproic acid)

>  <m_type>  (425) 
linker

>  <m_subtype>  (425) 
linker

>  <m_Rgroups>  (425) 
[H],[OH],[H]

>  <m_chem_types>  (425) 
1:backbone_n,2:backbone_c,3:backbone_n_mod

>  <m_activation_policy>  (425) 
canonical-sites-v1

$$$$

     RDKit          2D

 12 11  0  0  0  0  0  0  0  0999 V2000
   -5.7935    0.8647    0.0000 R   0  0  0  0  0  1  0  0  0  0  0  0
   -4.5621    0.0083    0.0000 N   0  0  0  0  0  0  0  0  0  0  0  0
   -4.6881   -1.4864    0.0000 R   0  0  0  0  0  1  0  0  0  0  0  0
   -3.2046    0.6465    0.0000 C   0  0  0  0  0  0  0  0  0  0  0  0
   -1.9732   -0.2100    0.0000 C   0  0  0  0  0  0  0  0  0  0  0  0
   -0.6157    0.4282    0.0000 C   0  0  0  0  0  0  0  0  0  0  0  0
    0.6157   -0.4282    0.0000 C   0  0  0  0  0  0  0  0  0  0  0  0
    1.9732    0.2100    0.0000 C   0  0  0  0  0  0  0  0  0  0  0  0
    3.2046   -0.6465    0.0000 C   0  0  0  0  0  0  0  0  0  0  0  0
    4.5621   -0.0083    0.0000 C   0  0  0  0  0  0  0  0  0  0  0  0
    5.7935   -0.8647    0.0000 R   0  0  0  0  0  1  0  0  0  0  0  0
    4.6881    1.4864    0.0000 O   0  0  0  0  0  0  0  0  0  0  0  0
  1  2  1  0
  2  3  1  0
  2  4  1  0
  4  5  1  0
  5  6  1  0
  6  7  1  0
  7  8  1  0
  8  9  1  0
  9 10  1  0
 10 11  1  0
 10 12  2  0
M  ISO  3   1   1   3   3  11   2
M  END
>  <symbol>  (426) 
7Ahp

>  <m_abbr>  (426) 
7Ahp

>  <m_name>  (426) 
7-Aminoheptanoic acid

>  <m_type>  (426) 
linker

>  <m_subtype>  (426) 
linker

>  <m_Rgroups>  (426) 
[H],[OH],[H]

>  <m_chem_types>  (426) 
1:backbone_n,2:backbone_c,3:backbone_n_mod

>  <m_activation_policy>  (426) 
canonical-sites-v1

$$$$

     RDKit          2D

 13 12  0  0  0  0  0  0  0  0999 V2000
   -6.4952    0.6346    0.0000 R   0  0  0  0  0  1  0  0  0  0  0  0
   -5.1962   -0.1154    0.0000 N   0  0  0  0  0  0  0  0  0  0  0  0
   -5.1962   -1.6154    0.0000 R   0  0  0  0  0  1  0  0  0  0  0  0
   -3.8971    0.6346    0.0000 C   0  0  0  0  0  0  0  0  0  0  0  0
   -2.5981   -0.1154    0.0000 C   0  0  0  0  0  0  0  0  0  0  0  0
   -1.2990    0.6346    0.0000 C   0  0  0  0  0  0  0  0  0  0  0  0
   -0.0000   -0.1154    0.0000 C   0  0  0  0  0  0  0  0  0  0  0  0
    1.2990    0.6346    0.0000 C   0  0  0  0  0  0  0  0  0  0  0  0
    2.5981   -0.1154    0.0000 C   0  0  0  0  0  0  0  0  0  0  0  0
    3.8971    0.6346    0.0000 C   0  0  0  0  0  0  0  0  0  0  0  0
    5.1962   -0.1154    0.0000 C   0  0  0  0  0  0  0  0  0  0  0  0
    6.4952    0.6346    0.0000 R   0  0  0  0  0  1  0  0  0  0  0  0
    5.1962   -1.6154    0.0000 O   0  0  0  0  0  0  0  0  0  0  0  0
  1  2  1  0
  2  3  1  0
  2  4  1  0
  4  5  1  0
  5  6  1  0
  6  7  1  0
  7  8  1  0
  8  9  1  0
  9 10  1  0
 10 11  1  0
 11 12  1  0
 11 13  2  0
M  ISO  3   1   1   3   3  12   2
M  END
>  <symbol>  (427) 
8Ado

>  <m_abbr>  (427) 
8Ado

>  <m_name>  (427) 
8-Aminooctanoic acid

>  <m_type>  (427) 
linker

>  <m_subtype>  (427) 
linker

>  <m_Rgroups>  (427) 
[H],[OH],[H]

>  <m_chem_types>  (427) 
1:backbone_n,2:backbone_c,3:backbone_n_mod

>  <m_activation_policy>  (427) 
canonical-sites-v1

$$$$

     RDKit          2D

 16 15  0  0  0  0  0  0  0  0999 V2000
   -8.4154    0.7870    0.0000 R   0  0  0  0  0  1  0  0  0  0  0  0
   -7.1545   -0.0256    0.0000 N   0  0  0  0  0  0  0  0  0  0  0  0
   -7.2278   -1.5238    0.0000 R   0  0  0  0  0  1  0  0  0  0  0  0
   -5.8204    0.6601    0.0000 C   0  0  0  0  0  0  0  0  0  0  0  0
   -4.5595   -0.1525    0.0000 C   0  0  0  0  0  0  0  0  0  0  0  0
   -3.2254    0.5332    0.0000 C   0  0  0  0  0  0  0  0  0  0  0  0
   -1.9645   -0.2794    0.0000 C   0  0  0  0  0  0  0  0  0  0  0  0
   -0.6304    0.4063    0.0000 C   0  0  0  0  0  0  0  0  0  0  0  0
    0.6304   -0.4063    0.0000 C   0  0  0  0  0  0  0  0  0  0  0  0
    1.9645    0.2794    0.0000 C   0  0  0  0  0  0  0  0  0  0  0  0
    3.2254   -0.5332    0.0000 C   0  0  0  0  0  0  0  0  0  0  0  0
    4.5595    0.1525    0.0000 C   0  0  0  0  0  0  0  0  0  0  0  0
    5.8204   -0.6601    0.0000 C   0  0  0  0  0  0  0  0  0  0  0  0
    7.1545    0.0256    0.0000 C   0  0  0  0  0  0  0  0  0  0  0  0
    8.4154   -0.7870    0.0000 R   0  0  0  0  0  1  0  0  0  0  0  0
    7.2278    1.5238    0.0000 O   0  0  0  0  0  0  0  0  0  0  0  0
  1  2  1  0
  2  3  1  0
  2  4  1  0
  4  5  1  0
  5  6  1  0
  6  7  1  0
  7  8  1  0
  8  9  1  0
  9 10  1  0
 10 11  1  0
 11 12  1  0
 12 13  1  0
 13 14  1  0
 14 15  1  0
 14 16  2  0
M  ISO  3   1   1   3   3  15   2
M  END
>  <symbol>  (428) 
11Aun

>  <m_abbr>  (428) 
11Aun

>  <m_name>  (428) 
11-Aminoundecanoic acid

>  <m_type>  (428) 
linker

>  <m_subtype>  (428) 
linker

>  <m_Rgroups>  (428) 
[H],[OH],[H]

>  <m_chem_types>  (428) 
1:backbone_n,2:backbone_c,3:backbone_n_mod

>  <m_activation_policy>  (428) 
canonical-sites-v1

$$$$

     RDKit          2D

 10  9  0  0  0  0  0  0  0  0999 V2000
   -4.4693    0.9153    0.0000 R   0  0  0  0  0  1  0  0  0  0  0  0
   -3.2691    0.0155    0.0000 N   0  0  0  0  0  0  0  0  0  0  0  0
   -3.4483   -1.4737    0.0000 R   0  0  0  0  0  1  0  0  0  0  0  0
   -1.8898    0.6050    0.0000 C   0  0  0  0  0  0  0  0  0  0  0  0
   -0.6897   -0.2947    0.0000 C   0  0  0  0  0  0  0  0  0  0  0  0
    0.6897    0.2947    0.0000 O   0  0  0  0  0  0  0  0  0  0  0  0
    1.8898   -0.6050    0.0000 C   0  0  0  0  0  0  0  0  0  0  0  0
    3.2691   -0.0155    0.0000 C   0  0  0  0  0  0  0  0  0  0  0  0
    4.4693   -0.9153    0.0000 R   0  0  0  0  0  1  0  0  0  0  0  0
    3.4483    1.4737    0.0000 O   0  0  0  0  0  0  0  0  0  0  0  0
  1  2  1  0
  2  3  1  0
  2  4  1  0
  4  5  1  0
  5  6  1  0
  6  7  1  0
  7  8  1  0
  8  9  1  0
  8 10  2  0
M  ISO  3   1   1   3   3   9   2
M  END
>  <symbol>  (429) 
OEG1

>  <m_abbr>  (429) 
OEG1

>  <m_name>  (429) 
5-Amino-3-oxapentanoic acid (mini-PEG 1-unit)

>  <m_type>  (429) 
linker

>  <m_subtype>  (429) 
linker

>  <m_Rgroups>  (429) 
[H],[OH],[H]

>  <m_chem_types>  (429) 
1:backbone_n,2:backbone_c,3:backbone_n_mod

>  <m_activation_policy>  (429) 
canonical-sites-v1

$$$$

     RDKit          2D

 16 15  0  0  0  0  0  0  0  0999 V2000
   -8.4154    0.7870    0.0000 R   0  0  0  0  0  1  0  0  0  0  0  0
   -7.1545   -0.0256    0.0000 N   0  0  0  0  0  0  0  0  0  0  0  0
   -7.2278   -1.5238    0.0000 R   0  0  0  0  0  1  0  0  0  0  0  0
   -5.8204    0.6601    0.0000 C   0  0  0  0  0  0  0  0  0  0  0  0
   -4.5595   -0.1525    0.0000 C   0  0  0  0  0  0  0  0  0  0  0  0
   -3.2254    0.5332    0.0000 O   0  0  0  0  0  0  0  0  0  0  0  0
   -1.9645   -0.2794    0.0000 C   0  0  0  0  0  0  0  0  0  0  0  0
   -0.6304    0.4063    0.0000 C   0  0  0  0  0  0  0  0  0  0  0  0
    0.6304   -0.4063    0.0000 O   0  0  0  0  0  0  0  0  0  0  0  0
    1.9645    0.2794    0.0000 C   0  0  0  0  0  0  0  0  0  0  0  0
    3.2254   -0.5332    0.0000 C   0  0  0  0  0  0  0  0  0  0  0  0
    4.5595    0.1525    0.0000 O   0  0  0  0  0  0  0  0  0  0  0  0
    5.8204   -0.6601    0.0000 C   0  0  0  0  0  0  0  0  0  0  0  0
    7.1545    0.0256    0.0000 C   0  0  0  0  0  0  0  0  0  0  0  0
    8.4154   -0.7870    0.0000 R   0  0  0  0  0  1  0  0  0  0  0  0
    7.2278    1.5238    0.0000 O   0  0  0  0  0  0  0  0  0  0  0  0
  1  2  1  0
  2  3  1  0
  2  4  1  0
  4  5  1  0
  5  6  1  0
  6  7  1  0
  7  8  1  0
  8  9  1  0
  9 10  1  0
 10 11  1  0
 11 12  1  0
 12 13  1  0
 13 14  1  0
 14 15  1  0
 14 16  2  0
M  ISO  3   1   1   3   3  15   2
M  END
>  <symbol>  (430) 
OEG3

>  <m_abbr>  (430) 
OEG3

>  <m_name>  (430) 
11-Amino-3,6,9-trioxaundecanoic acid (mini-PEG 3-unit)

>  <m_type>  (430) 
linker

>  <m_subtype>  (430) 
linker

>  <m_Rgroups>  (430) 
[H],[OH],[H]

>  <m_chem_types>  (430) 
1:backbone_n,2:backbone_c,3:backbone_n_mod

>  <m_activation_policy>  (430) 
canonical-sites-v1

$$$$

     RDKit          2D

 19 18  0  0  0  0  0  0  0  0999 V2000
  -10.3923    0.5526    0.0000 R   0  0  0  0  0  1  0  0  0  0  0  0
   -9.0933   -0.1974    0.0000 N   0  0  0  0  0  0  0  0  0  0  0  0
   -9.0933   -1.6974    0.0000 R   0  0  0  0  0  1  0  0  0  0  0  0
   -7.7942    0.5526    0.0000 C   0  0  0  0  0  0  0  0  0  0  0  0
   -6.4952   -0.1974    0.0000 C   0  0  0  0  0  0  0  0  0  0  0  0
   -5.1962    0.5526    0.0000 O   0  0  0  0  0  0  0  0  0  0  0  0
   -3.8971   -0.1974    0.0000 C   0  0  0  0  0  0  0  0  0  0  0  0
   -2.5981    0.5526    0.0000 C   0  0  0  0  0  0  0  0  0  0  0  0
   -1.2990   -0.1974    0.0000 O   0  0  0  0  0  0  0  0  0  0  0  0
    0.0000    0.5526    0.0000 C   0  0  0  0  0  0  0  0  0  0  0  0
    1.2990   -0.1974    0.0000 C   0  0  0  0  0  0  0  0  0  0  0  0
    2.5981    0.5526    0.0000 O   0  0  0  0  0  0  0  0  0  0  0  0
    3.8971   -0.1974    0.0000 C   0  0  0  0  0  0  0  0  0  0  0  0
    5.1962    0.5526    0.0000 C   0  0  0  0  0  0  0  0  0  0  0  0
    6.4952   -0.1974    0.0000 O   0  0  0  0  0  0  0  0  0  0  0  0
    7.7942    0.5526    0.0000 C   0  0  0  0  0  0  0  0  0  0  0  0
    9.0933   -0.1974    0.0000 C   0  0  0  0  0  0  0  0  0  0  0  0
   10.3923    0.5526    0.0000 R   0  0  0  0  0  1  0  0  0  0  0  0
    9.0933   -1.6974    0.0000 O   0  0  0  0  0  0  0  0  0  0  0  0
  1  2  1  0
  2  3  1  0
  2  4  1  0
  4  5  1  0
  5  6  1  0
  6  7  1  0
  7  8  1  0
  8  9  1  0
  9 10  1  0
 10 11  1  0
 11 12  1  0
 12 13  1  0
 13 14  1  0
 14 15  1  0
 15 16  1  0
 16 17  1  0
 17 18  1  0
 17 19  2  0
M  ISO  3   1   1   3   3  18   2
M  END
>  <symbol>  (431) 
OEG4

>  <m_abbr>  (431) 
OEG4

>  <m_name>  (431) 
14-Amino-3,6,9,12-tetraoxatetradecanoic acid (mini-PEG 4-unit)

>  <m_type>  (431) 
linker

>  <m_subtype>  (431) 
linker

>  <m_Rgroups>  (431) 
[H],[OH],[H]

>  <m_chem_types>  (431) 
1:backbone_n,2:backbone_c,3:backbone_n_mod

>  <m_activation_policy>  (431) 
canonical-sites-v1

$$$$

     RDKit          2D

 18 17  0  0  0  0  0  0  0  0999 V2000
    9.7206    0.7564    0.0000 R   0  0  0  0  0  1  0  0  0  0  0  0
    8.4520   -0.0439    0.0000 C   0  0  0  0  0  0  0  0  0  0  0  0
    8.5107   -1.5427    0.0000 O   0  0  0  0  0  0  0  0  0  0  0  0
    7.1245    0.6546    0.0000 C   0  0  0  0  0  0  0  0  0  0  0  0
    5.8559   -0.1457    0.0000 C   0  0  0  0  0  0  0  0  0  0  0  0
    4.5284    0.5529    0.0000 C   0  0  0  0  0  0  0  0  0  0  0  0
    3.2598   -0.2475    0.0000 C   0  0  0  0  0  0  0  0  0  0  0  0
    1.9324    0.4511    0.0000 C   0  0  0  0  0  0  0  0  0  0  0  0
    0.6637   -0.3493    0.0000 C   0  0  0  0  0  0  0  0  0  0  0  0
   -0.6637    0.3493    0.0000 C   0  0  0  0  0  0  0  0  0  0  0  0
   -1.9324   -0.4511    0.0000 C   0  0  0  0  0  0  0  0  0  0  0  0
   -3.2598    0.2475    0.0000 C   0  0  0  0  0  0  0  0  0  0  0  0
   -4.5284   -0.5529    0.0000 C   0  0  0  0  0  0  0  0  0  0  0  0
   -5.8559    0.1457    0.0000 C   0  0  0  0  0  0  0  0  0  0  0  0
   -7.1245   -0.6546    0.0000 C   0  0  0  0  0  0  0  0  0  0  0  0
   -8.4520    0.0439    0.0000 C   0  0  0  0  0  0  0  0  0  0  0  0
   -9.7206   -0.7564    0.0000 R   0  0  0  0  0  1  0  0  0  0  0  0
   -8.5107    1.5427    0.0000 O   0  0  0  0  0  0  0  0  0  0  0  0
  1  2  1  0
  2  3  2  0
  2  4  1  0
  4  5  1  0
  5  6  1  0
  6  7  1  0
  7  8  1  0
  8  9  1  0
  9 10  1  0
 10 11  1  0
 11 12  1  0
 12 13  1  0
 13 14  1  0
 14 15  1  0
 15 16  1  0
 16 17  1  0
 16 18  2  0
M  ISO  2   1   2  17   4
M  END
>  <symbol>  (432) 
C14dAcid

>  <m_abbr>  (432) 
C14dAcid

>  <m_name>  (432) 
Tetradecanedioic acid cap

>  <m_type>  (432) 
cap

>  <m_subtype>  (432) 
cap

>  <m_Rgroups>  (432) 
None,[OH],None,[OH]

>  <m_chem_types>  (432) 
2:backbone_c,4:carboxyl

>  <m_activation_policy>  (432) 
canonical-sites-v1

$$$$

     RDKit          2D

 20 19  0  0  0  0  0  0  0  0999 V2000
   11.0240    0.7300    0.0000 R   0  0  0  0  0  1  0  0  0  0  0  0
    9.7498   -0.0614    0.0000 C   0  0  0  0  0  0  0  0  0  0  0  0
    9.7981   -1.5606    0.0000 O   0  0  0  0  0  0  0  0  0  0  0  0
    8.4273    0.6464    0.0000 C   0  0  0  0  0  0  0  0  0  0  0  0
    7.1531   -0.1450    0.0000 C   0  0  0  0  0  0  0  0  0  0  0  0
    5.8306    0.5629    0.0000 C   0  0  0  0  0  0  0  0  0  0  0  0
    4.5563   -0.2285    0.0000 C   0  0  0  0  0  0  0  0  0  0  0  0
    3.2339    0.4793    0.0000 C   0  0  0  0  0  0  0  0  0  0  0  0
    1.9596   -0.3121    0.0000 C   0  0  0  0  0  0  0  0  0  0  0  0
    0.6371    0.3957    0.0000 C   0  0  0  0  0  0  0  0  0  0  0  0
   -0.6371   -0.3957    0.0000 C   0  0  0  0  0  0  0  0  0  0  0  0
   -1.9596    0.3121    0.0000 C   0  0  0  0  0  0  0  0  0  0  0  0
   -3.2339   -0.4793    0.0000 C   0  0  0  0  0  0  0  0  0  0  0  0
   -4.5563    0.2285    0.0000 C   0  0  0  0  0  0  0  0  0  0  0  0
   -5.8306   -0.5629    0.0000 C   0  0  0  0  0  0  0  0  0  0  0  0
   -7.1531    0.1450    0.0000 C   0  0  0  0  0  0  0  0  0  0  0  0
   -8.4273   -0.6464    0.0000 C   0  0  0  0  0  0  0  0  0  0  0  0
   -9.7498    0.0614    0.0000 C   0  0  0  0  0  0  0  0  0  0  0  0
  -11.0240   -0.7300    0.0000 R   0  0  0  0  0  1  0  0  0  0  0  0
   -9.7981    1.5606    0.0000 O   0  0  0  0  0  0  0  0  0  0  0  0
  1  2  1  0
  2  3  2  0
  2  4  1  0
  4  5  1  0
  5  6  1  0
  6  7  1  0
  7  8  1  0
  8  9  1  0
  9 10  1  0
 10 11  1  0
 11 12  1  0
 12 13  1  0
 13 14  1  0
 14 15  1  0
 15 16  1  0
 16 17  1  0
 17 18  1  0
 18 19  1  0
 18 20  2  0
M  ISO  2   1   2  19   4
M  END
>  <symbol>  (433) 
C16dAcid

>  <m_abbr>  (433) 
C16dAcid

>  <m_name>  (433) 
Hexadecanedioic acid cap

>  <m_type>  (433) 
cap

>  <m_subtype>  (433) 
cap

>  <m_Rgroups>  (433) 
None,[OH],None,[OH]

>  <m_chem_types>  (433) 
2:backbone_c,4:carboxyl

>  <m_activation_policy>  (433) 
canonical-sites-v1

$$$$

     RDKit          2D

 26 25  0  0  0  0  0  0  0  0999 V2000
   14.9287    0.6687    0.0000 R   0  0  0  0  0  1  0  0  0  0  0  0
   13.6446   -0.1067    0.0000 C   0  0  0  0  0  0  0  0  0  0  0  0
   13.6741   -1.6064    0.0000 O   0  0  0  0  0  0  0  0  0  0  0  0
   12.3311    0.6176    0.0000 C   0  0  0  0  0  0  0  0  0  0  0  0
   11.0471   -0.1578    0.0000 C   0  0  0  0  0  0  0  0  0  0  0  0
    9.7335    0.5665    0.0000 C   0  0  0  0  0  0  0  0  0  0  0  0
    8.4495   -0.2089    0.0000 C   0  0  0  0  0  0  0  0  0  0  0  0
    7.1360    0.5154    0.0000 C   0  0  0  0  0  0  0  0  0  0  0  0
    5.8519   -0.2600    0.0000 C   0  0  0  0  0  0  0  0  0  0  0  0
    4.5384    0.4643    0.0000 C   0  0  0  0  0  0  0  0  0  0  0  0
    3.2543   -0.3111    0.0000 C   0  0  0  0  0  0  0  0  0  0  0  0
    1.9408    0.4132    0.0000 C   0  0  0  0  0  0  0  0  0  0  0  0
    0.6568   -0.3622    0.0000 C   0  0  0  0  0  0  0  0  0  0  0  0
   -0.6568    0.3622    0.0000 C   0  0  0  0  0  0  0  0  0  0  0  0
   -1.9408   -0.4132    0.0000 C   0  0  0  0  0  0  0  0  0  0  0  0
   -3.2543    0.3111    0.0000 C   0  0  0  0  0  0  0  0  0  0  0  0
   -4.5384   -0.4643    0.0000 C   0  0  0  0  0  0  0  0  0  0  0  0
   -5.8519    0.2600    0.0000 C   0  0  0  0  0  0  0  0  0  0  0  0
   -7.1360   -0.5154    0.0000 C   0  0  0  0  0  0  0  0  0  0  0  0
   -8.4495    0.2089    0.0000 C   0  0  0  0  0  0  0  0  0  0  0  0
   -9.7335   -0.5665    0.0000 C   0  0  0  0  0  0  0  0  0  0  0  0
  -11.0471    0.1578    0.0000 C   0  0  0  0  0  0  0  0  0  0  0  0
  -12.3311   -0.6176    0.0000 C   0  0  0  0  0  0  0  0  0  0  0  0
  -13.6446    0.1067    0.0000 C   0  0  0  0  0  0  0  0  0  0  0  0
  -14.9287   -0.6687    0.0000 R   0  0  0  0  0  1  0  0  0  0  0  0
  -13.6741    1.6064    0.0000 O   0  0  0  0  0  0  0  0  0  0  0  0
  1  2  1  0
  2  3  2  0
  2  4  1  0
  4  5  1  0
  5  6  1  0
  6  7  1  0
  7  8  1  0
  8  9  1  0
  9 10  1  0
 10 11  1  0
 11 12  1  0
 12 13  1  0
 13 14  1  0
 14 15  1  0
 15 16  1  0
 16 17  1  0
 17 18  1  0
 18 19  1  0
 19 20  1  0
 20 21  1  0
 21 22  1  0
 22 23  1  0
 23 24  1  0
 24 25  1  0
 24 26  2  0
M  ISO  2   1   2  25   4
M  END
>  <symbol>  (434) 
C22dAcid

>  <m_abbr>  (434) 
C22dAcid

>  <m_name>  (434) 
Docosanedioic acid cap

>  <m_type>  (434) 
cap

>  <m_subtype>  (434) 
cap

>  <m_Rgroups>  (434) 
None,[OH],None,[OH]

>  <m_chem_types>  (434) 
2:backbone_c,4:carboxyl

>  <m_activation_policy>  (434) 
canonical-sites-v1

$$$$

     RDKit          2D

 16 15  0  0  0  0  0  0  0  0999 V2000
    8.5907    0.6964    0.0000 R   0  0  0  0  0  1  0  0  0  0  0  0
    7.3120   -0.0877    0.0000 C   0  0  0  0  0  0  0  0  0  0  0  0
    7.3517   -1.5872    0.0000 O   0  0  0  0  0  0  0  0  0  0  0  0
    5.9935    0.6276    0.0000 C   0  0  0  0  0  0  0  0  0  0  0  0
    4.7148   -0.1565    0.0000 C   0  0  0  0  0  0  0  0  0  0  0  0
    3.3964    0.5588    0.0000 C   0  0  0  0  0  0  0  0  0  0  0  0
    2.1176   -0.2253    0.0000 C   0  0  0  0  0  0  0  0  0  0  0  0
    0.7992    0.4901    0.0000 C   0  0  0  0  0  0  0  0  0  0  0  0
   -0.4795   -0.2940    0.0000 C   0  0  0  0  0  0  0  0  0  0  0  0
   -1.7980    0.4213    0.0000 C   0  0  0  0  0  0  0  0  0  0  0  0
   -3.0767   -0.3628    0.0000 C   0  0  0  0  0  0  0  0  0  0  0  0
   -4.3951    0.3525    0.0000 C   0  0  0  0  0  0  0  0  0  0  0  0
   -5.6739   -0.4316    0.0000 C   0  0  0  0  0  0  0  0  0  0  0  0
   -6.9923    0.2838    0.0000 C   0  0  0  0  0  0  0  0  0  0  0  0
   -8.2710   -0.5004    0.0000 C   0  0  0  0  0  0  0  0  0  0  0  0
   -9.5895    0.2150    0.0000 C   0  0  0  0  0  0  0  0  0  0  0  0
  1  2  1  0
  2  3  2  0
  2  4  1  0
  4  5  1  0
  5  6  1  0
  6  7  1  0
  7  8  1  0
  8  9  1  0
  9 10  1  0
 10 11  1  0
 11 12  1  0
 12 13  1  0
 13 14  1  0
 14 15  1  0
 15 16  1  0
M  ISO  1   1   2
M  END
>  <symbol>  (435) 
Myr

>  <m_abbr>  (435) 
Myr

>  <m_name>  (435) 
Myristoyl cap (C14 monoacid)

>  <m_type>  (435) 
cap

>  <m_subtype>  (435) 
cap

>  <m_Rgroups>  (435) 
None,[OH]

>  <m_chem_types>  (435) 
2:backbone_c

>  <m_activation_policy>  (435) 
canonical-sites-v1

$$$$

     RDKit          2D

 18 17  0  0  0  0  0  0  0  0999 V2000
    9.8751    0.6698    0.0000 R   0  0  0  0  0  1  0  0  0  0  0  0
    8.5924   -0.1078    0.0000 C   0  0  0  0  0  0  0  0  0  0  0  0
    8.6245   -1.6075    0.0000 O   0  0  0  0  0  0  0  0  0  0  0  0
    7.2776    0.6142    0.0000 C   0  0  0  0  0  0  0  0  0  0  0  0
    5.9949   -0.1634    0.0000 C   0  0  0  0  0  0  0  0  0  0  0  0
    4.6801    0.5586    0.0000 C   0  0  0  0  0  0  0  0  0  0  0  0
    3.3974   -0.2190    0.0000 C   0  0  0  0  0  0  0  0  0  0  0  0
    2.0826    0.5030    0.0000 C   0  0  0  0  0  0  0  0  0  0  0  0
    0.7999   -0.2746    0.0000 C   0  0  0  0  0  0  0  0  0  0  0  0
   -0.5149    0.4474    0.0000 C   0  0  0  0  0  0  0  0  0  0  0  0
   -1.7976   -0.3302    0.0000 C   0  0  0  0  0  0  0  0  0  0  0  0
   -3.1124    0.3918    0.0000 C   0  0  0  0  0  0  0  0  0  0  0  0
   -4.3950   -0.3858    0.0000 C   0  0  0  0  0  0  0  0  0  0  0  0
   -5.7098    0.3362    0.0000 C   0  0  0  0  0  0  0  0  0  0  0  0
   -6.9925   -0.4414    0.0000 C   0  0  0  0  0  0  0  0  0  0  0  0
   -8.3073    0.2806    0.0000 C   0  0  0  0  0  0  0  0  0  0  0  0
   -9.5900   -0.4970    0.0000 C   0  0  0  0  0  0  0  0  0  0  0  0
  -10.9048    0.2250    0.0000 C   0  0  0  0  0  0  0  0  0  0  0  0
  1  2  1  0
  2  3  2  0
  2  4  1  0
  4  5  1  0
  5  6  1  0
  6  7  1  0
  7  8  1  0
  8  9  1  0
  9 10  1  0
 10 11  1  0
 11 12  1  0
 12 13  1  0
 13 14  1  0
 14 15  1  0
 15 16  1  0
 16 17  1  0
 17 18  1  0
M  ISO  1   1   2
M  END
>  <symbol>  (436) 
Pal

>  <m_abbr>  (436) 
Pal

>  <m_name>  (436) 
Palmitoyl cap (C16 monoacid)

>  <m_type>  (436) 
cap

>  <m_subtype>  (436) 
cap

>  <m_Rgroups>  (436) 
None,[OH]

>  <m_chem_types>  (436) 
2:backbone_c

>  <m_activation_policy>  (436) 
canonical-sites-v1

$$$$

     RDKit          2D

 20 19  0  0  0  0  0  0  0  0999 V2000
   11.1620    0.6473    0.0000 R   0  0  0  0  0  1  0  0  0  0  0  0
    9.8764   -0.1255    0.0000 C   0  0  0  0  0  0  0  0  0  0  0  0
    9.9029   -1.6253    0.0000 O   0  0  0  0  0  0  0  0  0  0  0  0
    8.5644    0.6014    0.0000 C   0  0  0  0  0  0  0  0  0  0  0  0
    7.2788   -0.1714    0.0000 C   0  0  0  0  0  0  0  0  0  0  0  0
    5.9667    0.5555    0.0000 C   0  0  0  0  0  0  0  0  0  0  0  0
    4.6811   -0.2173    0.0000 C   0  0  0  0  0  0  0  0  0  0  0  0
    3.3690    0.5096    0.0000 C   0  0  0  0  0  0  0  0  0  0  0  0
    2.0834   -0.2632    0.0000 C   0  0  0  0  0  0  0  0  0  0  0  0
    0.7714    0.4637    0.0000 C   0  0  0  0  0  0  0  0  0  0  0  0
   -0.5142   -0.3091    0.0000 C   0  0  0  0  0  0  0  0  0  0  0  0
   -1.8263    0.4178    0.0000 C   0  0  0  0  0  0  0  0  0  0  0  0
   -3.1119   -0.3550    0.0000 C   0  0  0  0  0  0  0  0  0  0  0  0
   -4.4240    0.3719    0.0000 C   0  0  0  0  0  0  0  0  0  0  0  0
   -5.7096   -0.4009    0.0000 C   0  0  0  0  0  0  0  0  0  0  0  0
   -7.0217    0.3260    0.0000 C   0  0  0  0  0  0  0  0  0  0  0  0
   -8.3072   -0.4468    0.0000 C   0  0  0  0  0  0  0  0  0  0  0  0
   -9.6193    0.2801    0.0000 C   0  0  0  0  0  0  0  0  0  0  0  0
  -10.9049   -0.4927    0.0000 C   0  0  0  0  0  0  0  0  0  0  0  0
  -12.2170    0.2342    0.0000 C   0  0  0  0  0  0  0  0  0  0  0  0
  1  2  1  0
  2  3  2  0
  2  4  1  0
  4  5  1  0
  5  6  1  0
  6  7  1  0
  7  8  1  0
  8  9  1  0
  9 10  1  0
 10 11  1  0
 11 12  1  0
 12 13  1  0
 13 14  1  0
 14 15  1  0
 15 16  1  0
 16 17  1  0
 17 18  1  0
 18 19  1  0
 19 20  1  0
M  ISO  1   1   2
M  END
>  <symbol>  (437) 
Ste

>  <m_abbr>  (437) 
Ste

>  <m_name>  (437) 
Stearoyl cap (C18 monoacid)

>  <m_type>  (437) 
cap

>  <m_subtype>  (437) 
cap

>  <m_Rgroups>  (437) 
None,[OH]

>  <m_chem_types>  (437) 
2:backbone_c

>  <m_activation_policy>  (437) 
canonical-sites-v1

$$$$

     RDKit          2D

 20 19  0  0  0  0  0  0  0  0999 V2000
   -9.6296   -2.8251    0.0000 R   0  0  0  0  0  1  0  0  0  0  0  0
   -8.8057   -1.5716    0.0000 C   0  0  0  0  0  0  0  0  0  0  0  0
   -9.4793   -0.2314    0.0000 O   0  0  0  0  0  0  0  0  0  0  0  0
   -7.3082   -1.6584    0.0000 C   0  0  0  0  0  0  0  0  0  0  0  0
   -6.4843   -0.4049    0.0000 C   0  0  0  0  0  0  0  0  0  0  0  0
   -4.9868   -0.4917    0.0000 C   0  0  0  0  0  0  0  0  0  0  0  0
   -4.1629    0.7617    0.0000 C   0  0  0  0  0  0  0  0  0  0  0  0
   -2.6654    0.6750    0.0000 C   0  0  0  0  0  0  0  0  0  0  0  0
   -1.8415    1.9284    0.0000 C   0  0  0  0  0  0  0  0  0  0  0  0
   -0.3440    1.8416    0.0000 C   0  0  0  0  0  0  0  0  0  0  0  0
    0.4799    3.0951    0.0000 C   0  0  0  0  0  0  0  0  0  0  0  0
    1.9774    3.0083    0.0000 C   0  0  0  0  0  0  0  0  0  0  0  0
    2.6510    1.6681    0.0000 C   0  0  0  0  0  0  0  0  0  0  0  0
    4.1484    1.5813    0.0000 C   0  0  0  0  0  0  0  0  0  0  0  0
    4.8220    0.2410    0.0000 C   0  0  0  0  0  0  0  0  0  0  0  0
    6.3195    0.1542    0.0000 C   0  0  0  0  0  0  0  0  0  0  0  0
    6.9931   -1.1860    0.0000 C   0  0  0  0  0  0  0  0  0  0  0  0
    8.4906   -1.2728    0.0000 C   0  0  0  0  0  0  0  0  0  0  0  0
    9.1642   -2.6131    0.0000 C   0  0  0  0  0  0  0  0  0  0  0  0
   10.6617   -2.6998    0.0000 C   0  0  0  0  0  0  0  0  0  0  0  0
  1  2  1  0
  2  3  2  0
  2  4  1  0
  4  5  1  0
  5  6  1  0
  6  7  1  0
  7  8  1  0
  8  9  1  0
  9 10  1  0
 10 11  1  0
 11 12  2  0
 12 13  1  0
 13 14  1  0
 14 15  1  0
 15 16  1  0
 16 17  1  0
 17 18  1  0
 18 19  1  0
 19 20  1  0
M  ISO  1   1   2
M  END
>  <symbol>  (438) 
Ole

>  <m_abbr>  (438) 
Ole

>  <m_name>  (438) 
Oleoyl cap (C18:1 monoacid)

>  <m_type>  (438) 
cap

>  <m_subtype>  (438) 
cap

>  <m_Rgroups>  (438) 
None,[OH]

>  <m_chem_types>  (438) 
2:backbone_c

>  <m_activation_policy>  (438) 
canonical-sites-v1

$$$$

     RDKit          2D

 18 17  0  0  0  0  0  0  0  0999 V2000
    9.7206    0.7564    0.0000 R   0  0  0  0  0  1  0  0  0  0  0  0
    8.4520   -0.0439    0.0000 C   0  0  0  0  0  0  0  0  0  0  0  0
    8.5107   -1.5427    0.0000 O   0  0  0  0  0  0  0  0  0  0  0  0
    7.1245    0.6546    0.0000 C   0  0  0  0  0  0  0  0  0  0  0  0
    5.8559   -0.1457    0.0000 C   0  0  0  0  0  0  0  0  0  0  0  0
    4.5284    0.5529    0.0000 C   0  0  0  0  0  0  0  0  0  0  0  0
    3.2598   -0.2475    0.0000 C   0  0  0  0  0  0  0  0  0  0  0  0
    1.9324    0.4511    0.0000 C   0  0  0  0  0  0  0  0  0  0  0  0
    0.6637   -0.3493    0.0000 C   0  0  0  0  0  0  0  0  0  0  0  0
   -0.6637    0.3493    0.0000 C   0  0  0  0  0  0  0  0  0  0  0  0
   -1.9324   -0.4511    0.0000 C   0  0  0  0  0  0  0  0  0  0  0  0
   -3.2598    0.2475    0.0000 C   0  0  0  0  0  0  0  0  0  0  0  0
   -4.5284   -0.5529    0.0000 C   0  0  0  0  0  0  0  0  0  0  0  0
   -5.8559    0.1457    0.0000 C   0  0  0  0  0  0  0  0  0  0  0  0
   -7.1245   -0.6546    0.0000 C   0  0  0  0  0  0  0  0  0  0  0  0
   -8.4520    0.0439    0.0000 C   0  0  0  0  0  0  0  0  0  0  0  0
   -9.7206   -0.7564    0.0000 R   0  0  0  0  0  1  0  0  0  0  0  0
   -8.5107    1.5427    0.0000 O   0  0  0  0  0  0  0  0  0  0  0  0
  1  2  1  0
  2  3  2  0
  2  4  1  0
  4  5  1  0
  5  6  1  0
  6  7  1  0
  7  8  1  0
  8  9  1  0
  9 10  1  0
 10 11  1  0
 11 12  1  0
 12 13  1  0
 13 14  1  0
 14 15  1  0
 15 16  1  0
 16 17  1  0
 16 18  2  0
M  ISO  2   1   2  17   4
M  END
>  <symbol>  (439) 
C14FA

>  <m_abbr>  (439) 
C14FA

>  <m_name>  (439) 
Tetradecanoic diacid cap (C14)

>  <m_type>  (439) 
cap

>  <m_subtype>  (439) 
cap

>  <m_Rgroups>  (439) 
None,[OH],None,[OH]

>  <m_chem_types>  (439) 
2:backbone_c,4:carboxyl

>  <m_activation_policy>  (439) 
canonical-sites-v1

$$$$

     RDKit          2D

 20 19  0  0  0  0  0  0  0  0999 V2000
   11.0240    0.7300    0.0000 R   0  0  0  0  0  1  0  0  0  0  0  0
    9.7498   -0.0614    0.0000 C   0  0  0  0  0  0  0  0  0  0  0  0
    9.7981   -1.5606    0.0000 O   0  0  0  0  0  0  0  0  0  0  0  0
    8.4273    0.6464    0.0000 C   0  0  0  0  0  0  0  0  0  0  0  0
    7.1531   -0.1450    0.0000 C   0  0  0  0  0  0  0  0  0  0  0  0
    5.8306    0.5629    0.0000 C   0  0  0  0  0  0  0  0  0  0  0  0
    4.5563   -0.2285    0.0000 C   0  0  0  0  0  0  0  0  0  0  0  0
    3.2339    0.4793    0.0000 C   0  0  0  0  0  0  0  0  0  0  0  0
    1.9596   -0.3121    0.0000 C   0  0  0  0  0  0  0  0  0  0  0  0
    0.6371    0.3957    0.0000 C   0  0  0  0  0  0  0  0  0  0  0  0
   -0.6371   -0.3957    0.0000 C   0  0  0  0  0  0  0  0  0  0  0  0
   -1.9596    0.3121    0.0000 C   0  0  0  0  0  0  0  0  0  0  0  0
   -3.2339   -0.4793    0.0000 C   0  0  0  0  0  0  0  0  0  0  0  0
   -4.5563    0.2285    0.0000 C   0  0  0  0  0  0  0  0  0  0  0  0
   -5.8306   -0.5629    0.0000 C   0  0  0  0  0  0  0  0  0  0  0  0
   -7.1531    0.1450    0.0000 C   0  0  0  0  0  0  0  0  0  0  0  0
   -8.4273   -0.6464    0.0000 C   0  0  0  0  0  0  0  0  0  0  0  0
   -9.7498    0.0614    0.0000 C   0  0  0  0  0  0  0  0  0  0  0  0
  -11.0240   -0.7300    0.0000 R   0  0  0  0  0  1  0  0  0  0  0  0
   -9.7981    1.5606    0.0000 O   0  0  0  0  0  0  0  0  0  0  0  0
  1  2  1  0
  2  3  2  0
  2  4  1  0
  4  5  1  0
  5  6  1  0
  6  7  1  0
  7  8  1  0
  8  9  1  0
  9 10  1  0
 10 11  1  0
 11 12  1  0
 12 13  1  0
 13 14  1  0
 14 15  1  0
 15 16  1  0
 16 17  1  0
 17 18  1  0
 18 19  1  0
 18 20  2  0
M  ISO  2   1   2  19   4
M  END
>  <symbol>  (440) 
C16FA

>  <m_abbr>  (440) 
C16FA

>  <m_name>  (440) 
Hexadecanoic diacid cap (C16)

>  <m_type>  (440) 
cap

>  <m_subtype>  (440) 
cap

>  <m_Rgroups>  (440) 
None,[OH],None,[OH]

>  <m_chem_types>  (440) 
2:backbone_c,4:carboxyl

>  <m_activation_policy>  (440) 
canonical-sites-v1

$$$$

     RDKit          2D

 26 25  0  0  0  0  0  0  0  0999 V2000
   14.9287    0.6687    0.0000 R   0  0  0  0  0  1  0  0  0  0  0  0
   13.6446   -0.1067    0.0000 C   0  0  0  0  0  0  0  0  0  0  0  0
   13.6741   -1.6064    0.0000 O   0  0  0  0  0  0  0  0  0  0  0  0
   12.3311    0.6176    0.0000 C   0  0  0  0  0  0  0  0  0  0  0  0
   11.0471   -0.1578    0.0000 C   0  0  0  0  0  0  0  0  0  0  0  0
    9.7335    0.5665    0.0000 C   0  0  0  0  0  0  0  0  0  0  0  0
    8.4495   -0.2089    0.0000 C   0  0  0  0  0  0  0  0  0  0  0  0
    7.1360    0.5154    0.0000 C   0  0  0  0  0  0  0  0  0  0  0  0
    5.8519   -0.2600    0.0000 C   0  0  0  0  0  0  0  0  0  0  0  0
    4.5384    0.4643    0.0000 C   0  0  0  0  0  0  0  0  0  0  0  0
    3.2543   -0.3111    0.0000 C   0  0  0  0  0  0  0  0  0  0  0  0
    1.9408    0.4132    0.0000 C   0  0  0  0  0  0  0  0  0  0  0  0
    0.6568   -0.3622    0.0000 C   0  0  0  0  0  0  0  0  0  0  0  0
   -0.6568    0.3622    0.0000 C   0  0  0  0  0  0  0  0  0  0  0  0
   -1.9408   -0.4132    0.0000 C   0  0  0  0  0  0  0  0  0  0  0  0
   -3.2543    0.3111    0.0000 C   0  0  0  0  0  0  0  0  0  0  0  0
   -4.5384   -0.4643    0.0000 C   0  0  0  0  0  0  0  0  0  0  0  0
   -5.8519    0.2600    0.0000 C   0  0  0  0  0  0  0  0  0  0  0  0
   -7.1360   -0.5154    0.0000 C   0  0  0  0  0  0  0  0  0  0  0  0
   -8.4495    0.2089    0.0000 C   0  0  0  0  0  0  0  0  0  0  0  0
   -9.7335   -0.5665    0.0000 C   0  0  0  0  0  0  0  0  0  0  0  0
  -11.0471    0.1578    0.0000 C   0  0  0  0  0  0  0  0  0  0  0  0
  -12.3311   -0.6176    0.0000 C   0  0  0  0  0  0  0  0  0  0  0  0
  -13.6446    0.1067    0.0000 C   0  0  0  0  0  0  0  0  0  0  0  0
  -14.9287   -0.6687    0.0000 R   0  0  0  0  0  1  0  0  0  0  0  0
  -13.6741    1.6064    0.0000 O   0  0  0  0  0  0  0  0  0  0  0  0
  1  2  1  0
  2  3  2  0
  2  4  1  0
  4  5  1  0
  5  6  1  0
  6  7  1  0
  7  8  1  0
  8  9  1  0
  9 10  1  0
 10 11  1  0
 11 12  1  0
 12 13  1  0
 13 14  1  0
 14 15  1  0
 15 16  1  0
 16 17  1  0
 17 18  1  0
 18 19  1  0
 19 20  1  0
 20 21  1  0
 21 22  1  0
 22 23  1  0
 23 24  1  0
 24 25  1  0
 24 26  2  0
M  ISO  2   1   2  25   4
M  END
>  <symbol>  (441) 
C22FA

>  <m_abbr>  (441) 
C22FA

>  <m_name>  (441) 
Docosanoic diacid cap (C22)

>  <m_type>  (441) 
cap

>  <m_subtype>  (441) 
cap

>  <m_Rgroups>  (441) 
None,[OH],None,[OH]

>  <m_chem_types>  (441) 
2:backbone_c,4:carboxyl

>  <m_activation_policy>  (441) 
canonical-sites-v1

$$$$

     RDKit          2D

 29 30  0  0  0  0  0  0  0  0999 V2000
   -8.1048    2.2488    0.0000 R   0  0  0  0  0  1  0  0  0  0  0  0
   -6.8227    1.4702    0.0000 N   0  0  0  0  0  0  0  0  0  0  0  0
   -5.5074    2.1913    0.0000 R   0  0  0  0  0  1  0  0  0  0  0  0
   -6.8559   -0.0294    0.0000 C   0  0  0  0  0  0  0  0  0  0  0  0
   -5.5737   -0.8080    0.0000 C   0  0  0  0  0  0  0  0  0  0  0  0
   -4.2584   -0.0869    0.0000 C   0  0  0  0  0  0  0  0  0  0  0  0
   -2.9763   -0.8654    0.0000 C   0  0  0  0  0  0  0  0  0  0  0  0
   -1.6610   -0.1443    0.0000 C   0  0  0  0  0  0  0  0  0  0  0  0
   -0.3789   -0.9229    0.0000 N   0  0  0  0  0  0  0  0  0  0  0  0
   -0.4120   -2.4225    0.0000 R   0  0  0  0  0  1  0  0  0  0  0  0
    0.9364   -0.2018    0.0000 S   0  0  0  0  0  0  0  0  0  0  0  0
    0.2154    1.1135    0.0000 O   0  0  0  0  0  0  0  0  0  0  0  0
    1.6575   -1.5171    0.0000 O   0  0  0  0  0  0  0  0  0  0  0  0
    2.2518    0.5193    0.0000 C   0  0  0  0  0  0  0  0  0  0  0  0
    2.2849    2.0189    0.0000 C   0  0  0  0  0  0  0  0  0  0  0  0
    3.6002    2.7400    0.0000 C   0  0  0  0  0  0  0  0  0  0  0  0
    4.8824    1.9615    0.0000 C   0  0  0  0  0  0  0  0  0  0  0  0
    4.8492    0.4618    0.0000 C   0  0  0  0  0  0  0  0  0  0  0  0
    6.1313   -0.3167    0.0000 C   0  0  0  0  0  0  0  0  0  0  0  0
    7.4466    0.4044    0.0000 N   0  0  0  0  0  0  0  0  0  0  0  0
    8.7288   -0.3742    0.0000 C   0  0  0  0  0  0  0  0  0  0  0  0
    7.4798    1.9040    0.0000 C   0  0  0  0  0  0  0  0  0  0  0  0
    6.0982   -1.8163    0.0000 C   0  0  0  0  0  0  0  0  0  0  0  0
    4.7828   -2.5374    0.0000 C   0  0  0  0  0  0  0  0  0  0  0  0
    3.5007   -1.7589    0.0000 C   0  0  0  0  0  0  0  0  0  0  0  0
    3.5339   -0.2593    0.0000 C   0  0  0  0  0  0  0  0  0  0  0  0
   -8.1712   -0.7505    0.0000 C   0  0  0  0  0  0  0  0  0  0  0  0
   -9.4533    0.0280    0.0000 R   0  0  0  0  0  1  0  0  0  0  0  0
   -8.2044   -2.2501    0.0000 O   0  0  0  0  0  0  0  0  0  0  0  0
  1  2  1  0
  2  3  1  0
  2  4  1  0
  4  5  1  1
  5  6  1  0
  6  7  1  0
  7  8  1  0
  8  9  1  0
  9 10  1  0
  9 11  1  0
 11 12  2  0
 11 13  2  0
 11 14  1  0
 14 15  1  0
 15 16  2  0
 16 17  1  0
 17 18  2  0
 18 19  1  0
 19 20  1  0
 20 21  1  0
 20 22  1  0
 19 23  2  0
 23 24  1  0
 24 25  2  0
 25 26  1  0
  4 27  1  0
 27 28  1  0
 27 29  2  0
 26 14  2  0
 26 18  1  0
M  ISO  4   1   1   3   3  10   4  28   2
M  END
>  <symbol>  (1)
DnLys

>  <m_abbr>  (1)
DnLys

>  <m_name>  (1)
N-epsilon-Dansyl-L-lysine

>  <m_type>  (1)
aa

>  <m_subtype>  (1)
modified

>  <m_Rgroups>  (1)
[H],[OH],[H],[H]

>  <m_chem_types>  (1)
1:backbone_n,2:backbone_c,3:backbone_n_mod,4:sulfonamide_nh

>  <m_activation_policy>  (1)
canonical-sites-v1

$$$$

     RDKit          2D

 25 26  0  0  0  0  0  0  0  0999 V2000
    6.9085    2.2901    0.0000 R   0  0  0  0  0  1  0  0  0  0  0  0
    5.6597    1.4590    0.0000 N   0  0  0  0  0  0  0  0  0  0  0  0
    4.3156    2.1249    0.0000 R   0  0  0  0  0  1  0  0  0  0  0  0
    5.7551   -0.0380    0.0000 C   0  0  0  0  0  0  0  0  0  0  0  0
    4.5064   -0.8690    0.0000 C   0  0  0  0  0  0  0  0  0  0  0  0
    3.1623   -0.2031    0.0000 C   0  0  0  0  0  0  0  0  0  0  0  0
    1.9136   -1.0342    0.0000 C   0  0  0  0  0  0  0  0  0  0  0  0
    0.5695   -0.3683    0.0000 C   0  0  0  0  0  0  0  0  0  0  0  0
   -0.6793   -1.1994    0.0000 N   0  0  0  0  0  0  0  0  0  0  0  0
   -0.5839   -2.6964    0.0000 R   0  0  0  0  0  1  0  0  0  0  0  0
   -2.0233   -0.5335    0.0000 C   0  0  0  0  0  0  0  0  0  0  0  0
   -3.2721   -1.3646    0.0000 C   0  0  0  0  0  0  0  0  0  0  0  0
   -4.6162   -0.6987    0.0000 C   0  0  0  0  0  0  0  0  0  0  0  0
   -5.8649   -1.5298    0.0000 N   0  0  0  0  0  0  0  0  0  0  0  0
   -7.2090   -0.8639    0.0000 O   0  0  0  0  0  0  0  0  0  0  0  0
   -5.7695   -3.0268    0.0000 O   0  0  0  0  0  0  0  0  0  0  0  0
   -4.7115    0.7983    0.0000 C   0  0  0  0  0  0  0  0  0  0  0  0
   -5.8878    1.7290    0.0000 N   0  0  0  0  0  0  0  0  0  0  0  0
   -5.3661    3.1354    0.0000 O   0  0  0  0  0  0  0  0  0  0  0  0
   -3.8673    3.0738    0.0000 N   0  0  0  0  0  0  0  0  0  0  0  0
   -3.4628    1.6293    0.0000 C   0  0  0  0  0  0  0  0  0  0  0  0
   -2.1187    0.9634    0.0000 C   0  0  0  0  0  0  0  0  0  0  0  0
    7.0992   -0.7038    0.0000 C   0  0  0  0  0  0  0  0  0  0  0  0
    8.3479    0.1272    0.0000 R   0  0  0  0  0  1  0  0  0  0  0  0
    7.1946   -2.2008    0.0000 O   0  0  0  0  0  0  0  0  0  0  0  0
  1  2  1  0
  2  3  1  0
  2  4  1  0
  4  5  1  6
  5  6  1  0
  6  7  1  0
  7  8  1  0
  8  9  1  0
  9 10  1  0
  9 11  1  0
 11 12  1  0
 12 13  2  0
 13 14  1  0
 14 15  2  0
 14 16  1  0
 13 17  1  0
 17 18  2  0
 18 19  1  0
 19 20  1  0
 20 21  2  0
 21 22  1  0
  4 23  1  0
 23 24  1  0
 23 25  2  0
 22 11  2  0
 21 17  1  0
M  CHG  2  14   1  16  -1
M  ISO  4   1   1   3   3  10   4  24   2
M  END
>  <symbol>  (443) 
NBDLys

>  <m_abbr>  (443) 
NBDLys

>  <m_name>  (443) 
N-epsilon-NBD-L-lysine

>  <m_type>  (443) 
aa

>  <m_subtype>  (443) 
modified

>  <m_Rgroups>  (443) 
[H],[OH],[H],[H]

>  <m_chem_types>  (443) 
1:backbone_n,2:backbone_c,3:backbone_n_mod,4:amine_secondary

>  <m_activation_policy>  (443) 
canonical-sites-v1

$$$$

     RDKit          2D

 31 32  0  0  0  0  0  0  0  0999 V2000
   -7.6066   -3.4196    0.0000 R   0  0  0  0  0  1  0  0  0  0  0  0
   -6.7117   -2.2157    0.0000 N   0  0  0  0  0  0  0  0  0  0  0  0
   -5.2217   -2.3888    0.0000 R   0  0  0  0  0  1  0  0  0  0  0  0
   -7.3068   -0.8389    0.0000 C   0  0  0  0  0  0  0  0  0  0  0  0
   -6.4120    0.3650    0.0000 C   0  0  0  0  0  0  0  0  0  0  0  0
   -4.9220    0.1919    0.0000 C   0  0  0  0  0  0  0  0  0  0  0  0
   -4.0272    1.3958    0.0000 C   0  0  0  0  0  0  0  0  0  0  0  0
   -2.5372    1.2228    0.0000 C   0  0  0  0  0  0  0  0  0  0  0  0
   -1.6423    2.4266    0.0000 N   0  0  0  0  0  0  0  0  0  0  0  0
   -2.2375    3.8035    0.0000 R   0  0  0  0  0  1  0  0  0  0  0  0
   -0.1523    2.2536    0.0000 C   0  0  0  0  0  0  0  0  0  0  0  0
    0.7425    3.4574    0.0000 O   0  0  0  0  0  0  0  0  0  0  0  0
    0.4428    0.8767    0.0000 C   0  0  0  0  0  0  0  0  0  0  0  0
    1.9328    0.7036    0.0000 C   0  0  0  0  0  0  0  0  0  0  0  0
    2.5279   -0.6733    0.0000 C   0  0  0  0  0  0  0  0  0  0  0  0
    1.6331   -1.8771    0.0000 C   0  0  0  0  0  0  0  0  0  0  0  0
    4.0179   -0.8463    0.0000 C   0  0  0  0  0  0  0  0  0  0  0  0
    4.6130   -2.2232    0.0000 C   0  0  0  0  0  0  0  0  0  0  0  0
    6.1030   -2.3962    0.0000 C   0  0  0  0  0  0  0  0  0  0  0  0
    6.9979   -1.1924    0.0000 C   0  0  0  0  0  0  0  0  0  0  0  0
    8.4879   -1.3654    0.0000 N   0  0  0  0  0  0  0  0  0  0  0  0
    9.0830   -2.7423    0.0000 R   0  0  0  0  0  1  0  0  0  0  0  0
    9.3827   -0.1616    0.0000 R   0  0  0  0  0  1  0  0  0  0  0  0
    6.4027    0.1845    0.0000 C   0  0  0  0  0  0  0  0  0  0  0  0
    4.9128    0.3575    0.0000 C   0  0  0  0  0  0  0  0  0  0  0  0
    4.3176    1.7344    0.0000 O   0  0  0  0  0  0  0  0  0  0  0  0
    2.8276    1.9075    0.0000 C   0  0  0  0  0  0  0  0  0  0  0  0
    2.2325    3.2844    0.0000 O   0  0  0  0  0  0  0  0  0  0  0  0
   -8.7968   -0.6658    0.0000 C   0  0  0  0  0  0  0  0  0  0  0  0
   -9.6917   -1.8697    0.0000 R   0  0  0  0  0  1  0  0  0  0  0  0
   -9.3920    0.7111    0.0000 O   0  0  0  0  0  0  0  0  0  0  0  0
  1  2  1  0
  2  3  1  0
  2  4  1  0
  4  5  1  6
  5  6  1  0
  6  7  1  0
  7  8  1  0
  8  9  1  0
  9 10  1  0
  9 11  1  0
 11 12  2  0
 11 13  1  0
 13 14  1  0
 14 15  2  0
 15 16  1  0
 15 17  1  0
 17 18  1  0
 18 19  2  0
 19 20  1  0
 20 21  1  0
 21 22  1  0
 21 23  1  0
 20 24  2  0
 24 25  1  0
 25 26  1  0
 26 27  1  0
 27 28  2  0
  4 29  1  0
 29 30  1  0
 29 31  2  0
 27 14  1  0
 25 17  2  0
M  ISO  6   1   1   3   3  10   4  22   5  23   6  30   2
M  END
>  <symbol>  (444) 
AMCALys

>  <m_abbr>  (444) 
AMCALys

>  <m_name>  (444) 
N-epsilon-AMCA-L-lysine

>  <m_type>  (444) 
aa

>  <m_subtype>  (444) 
modified

>  <m_Rgroups>  (444) 
[H],[OH],[H],[H],[H],[H]

>  <m_chem_types>  (444) 
1:backbone_n,2:backbone_c,3:backbone_n_mod,4:amide_nh,5:amine_primary,6:amine_primary

>  <m_activation_policy>  (444) 
canonical-sites-v1

$$$$

     RDKit          2D

 33 36  0  0  0  0  0  0  0  0999 V2000
   -5.1154    3.7372    0.0000 R   0  0  0  0  0  1  0  0  0  0  0  0
   -4.6601    2.3080    0.0000 N   0  0  0  0  0  0  0  0  0  0  0  0
   -3.1947    1.9877    0.0000 R   0  0  0  0  0  1  0  0  0  0  0  0
   -5.6702    1.1990    0.0000 C   0  0  0  0  0  0  0  0  0  0  0  0
   -5.2149   -0.2302    0.0000 C   0  0  0  0  0  0  0  0  0  0  0  0
   -3.7495   -0.5505    0.0000 C   0  0  0  0  0  0  0  0  0  0  0  0
   -3.2941   -1.9797    0.0000 C   0  0  0  0  0  0  0  0  0  0  0  0
   -1.8287   -2.3000    0.0000 C   0  0  0  0  0  0  0  0  0  0  0  0
   -1.3734   -3.7292    0.0000 N   0  0  0  0  0  0  0  0  0  0  0  0
   -2.3835   -4.8382    0.0000 R   0  0  0  0  0  1  0  0  0  0  0  0
    0.0920   -4.0495    0.0000 C   0  0  0  0  0  0  0  0  0  0  0  0
    0.5473   -5.4787    0.0000 O   0  0  0  0  0  0  0  0  0  0  0  0
    1.1021   -2.9406    0.0000 C   0  0  0  0  0  0  0  0  0  0  0  0
    0.6467   -1.5114    0.0000 C   0  0  0  0  0  0  0  0  0  0  0  0
    1.6568   -0.4024    0.0000 C   0  0  0  0  0  0  0  0  0  0  0  0
    1.2015    1.0268    0.0000 C   0  0  0  0  0  0  0  0  0  0  0  0
    2.2116    2.1357    0.0000 C   0  0  0  0  0  0  0  0  0  0  0  0
    3.6770    1.8154    0.0000 C   0  0  0  0  0  0  0  0  0  0  0  0
    4.1323    0.3862    0.0000 C   0  0  0  0  0  0  0  0  0  0  0  0
    3.1222   -0.7227    0.0000 C   0  0  0  0  0  0  0  0  0  0  0  0
    3.5776   -2.1519    0.0000 O   0  0  0  0  0  0  0  0  0  0  0  0
    2.5675   -3.2609    0.0000 C   0  0  0  0  0  0  0  0  0  0  0  0
    3.0228   -4.6901    0.0000 O   0  0  0  0  0  0  0  0  0  0  0  0
    5.5977    0.0659    0.0000 C   0  0  0  0  0  0  0  0  0  0  0  0
    6.6078    1.1749    0.0000 C   0  0  0  0  0  0  0  0  0  0  0  0
    6.1525    2.6041    0.0000 C   0  0  0  0  0  0  0  0  0  0  0  0
    4.6871    2.9244    0.0000 N   0  0  0  0  0  0  0  0  0  0  0  0
    4.2318    4.3536    0.0000 C   0  0  0  0  0  0  0  0  0  0  0  0
    2.7664    4.6739    0.0000 C   0  0  0  0  0  0  0  0  0  0  0  0
    1.7563    3.5650    0.0000 C   0  0  0  0  0  0  0  0  0  0  0  0
   -7.1356    1.5193    0.0000 C   0  0  0  0  0  0  0  0  0  0  0  0
   -7.5909    2.9485    0.0000 R   0  0  0  0  0  1  0  0  0  0  0  0
   -8.1457    0.4104    0.0000 O   0  0  0  0  0  0  0  0  0  0  0  0
  1  2  1  0
  2  3  1  0
  2  4  1  0
  4  5  1  1
  5  6  1  0
  6  7  1  0
  7  8  1  0
  8  9  1  0
  9 10  1  0
  9 11  1  0
 11 12  2  0
 11 13  1  0
 13 14  2  0
 14 15  1  0
 15 16  1  0
 16 17  2  0
 17 18  1  0
 18 19  2  0
 19 20  1  0
 20 21  1  0
 21 22  1  0
 22 23  2  0
 19 24  1  0
 24 25  1  0
 25 26  1  0
 26 27  1  0
 27 28  1  0
 28 29  1  0
 29 30  1  0
  4 31  1  0
 31 32  1  0
 31 33  2  0
 22 13  1  0
 20 15  2  0
 30 17  1  0
 27 18  1  0
M  ISO  4   1   1   3   3  10   4  32   2
M  END
>  <symbol>  (445) 
C343Lys

>  <m_abbr>  (445) 
C343Lys

>  <m_name>  (445) 
N-epsilon-Coumarin343-L-lysine

>  <m_type>  (445) 
aa

>  <m_subtype>  (445) 
modified

>  <m_Rgroups>  (445) 
[H],[OH],[H],[H]

>  <m_chem_types>  (445) 
1:backbone_n,2:backbone_c,3:backbone_n_mod,4:amide_nh

>  <m_activation_policy>  (445) 
canonical-sites-v1

$$$$

     RDKit          2D

 42 46  0  0  0  0  0  0  0  0999 V2000
   11.1863    2.1197    0.0000 R   0  0  0  0  0  1  0  0  0  0  0  0
    9.9915    1.2128    0.0000 N   0  0  0  0  0  0  0  0  0  0  0  0
    8.6087    1.7942    0.0000 R   0  0  0  0  0  1  0  0  0  0  0  0
   10.1794   -0.2753    0.0000 C   0  0  0  0  0  0  0  0  0  0  0  0
    8.9846   -1.1822    0.0000 C   0  0  0  0  0  0  0  0  0  0  0  0
    7.6018   -0.6009    0.0000 C   0  0  0  0  0  0  0  0  0  0  0  0
    6.4070   -1.5077    0.0000 C   0  0  0  0  0  0  0  0  0  0  0  0
    5.0242   -0.9264    0.0000 C   0  0  0  0  0  0  0  0  0  0  0  0
    3.8294   -1.8333    0.0000 N   0  0  0  0  0  0  0  0  0  0  0  0
    2.4466   -1.2520    0.0000 C   0  0  0  0  0  0  0  0  0  0  0  0
    2.2587    0.2362    0.0000 S   0  0  0  0  0  0  0  0  0  0  0  0
    1.2518   -2.1588    0.0000 N   0  0  0  0  0  0  0  0  0  0  0  0
   -0.1310   -1.5775    0.0000 C   0  0  0  0  0  0  0  0  0  0  0  0
   -0.3189   -0.0893    0.0000 C   0  0  0  0  0  0  0  0  0  0  0  0
   -1.7017    0.4920    0.0000 C   0  0  0  0  0  0  0  0  0  0  0  0
   -2.8965   -0.4149    0.0000 C   0  0  0  0  0  0  0  0  0  0  0  0
   -2.7086   -1.9030    0.0000 C   0  0  0  0  0  0  0  0  0  0  0  0
   -1.3258   -2.4844    0.0000 C   0  0  0  0  0  0  0  0  0  0  0  0
   -4.0658   -2.5417    0.0000 C   0  0  0  0  0  0  0  0  0  0  0  0
   -4.3470   -4.0151    0.0000 O   0  0  0  0  0  0  0  0  0  0  0  0
   -5.0926   -1.4482    0.0000 O   0  0  0  0  0  0  0  0  0  0  0  0
   -4.3700   -0.1337    0.0000 C   0  0  0  0  0  0  0  0  0  0  0  0
   -3.5138    1.0979    0.0000 C   0  0  0  0  0  0  0  0  0  0  0  0
   -2.3171    1.6058    0.0000 C   0  0  0  0  0  0  0  0  0  0  0  0
   -1.8605    2.2627    0.0000 C   0  0  0  0  0  0  0  0  0  0  0  0
   -2.2011    2.9865    0.0000 C   0  0  0  0  0  0  0  0  0  0  0  0
   -0.9455    4.7930    0.0000 O   0  0  0  0  0  0  0  0  0  0  0  0
    0.5492    4.6675    0.0000 R   0  0  0  0  0  1  0  0  0  0  0  0
   -2.9983    3.0535    0.0000 C   0  0  0  0  0  0  0  0  0  0  0  0
   -4.1525    2.4552    0.0000 C   0  0  0  0  0  0  0  0  0  0  0  0
   -5.6472    2.5808    0.0000 O   0  0  0  0  0  0  0  0  0  0  0  0
   -6.5033    1.3491    0.0000 C   0  0  0  0  0  0  0  0  0  0  0  0
   -7.9980    1.4746    0.0000 C   0  0  0  0  0  0  0  0  0  0  0  0
   -8.8542    0.2429    0.0000 C   0  0  0  0  0  0  0  0  0  0  0  0
   -8.2155   -1.1143    0.0000 C   0  0  0  0  0  0  0  0  0  0  0  0
   -9.0716   -2.3460    0.0000 O   0  0  0  0  0  0  0  0  0  0  0  0
  -10.5664   -2.2204    0.0000 R   0  0  0  0  0  1  0  0  0  0  0  0
   -6.7208   -1.2399    0.0000 C   0  0  0  0  0  0  0  0  0  0  0  0
   -5.8647   -0.0082    0.0000 C   0  0  0  0  0  0  0  0  0  0  0  0
   11.5622   -0.8567    0.0000 C   0  0  0  0  0  0  0  0  0  0  0  0
   12.7570    0.0502    0.0000 R   0  0  0  0  0  1  0  0  0  0  0  0
   11.7502   -2.3448    0.0000 O   0  0  0  0  0  0  0  0  0  0  0  0
  1  2  1  0
  2  3  1  0
  2  4  1  0
  4  5  1  6
  5  6  1  0
  6  7  1  0
  7  8  1  0
  8  9  1  0
  9 10  1  0
 10 11  2  0
 10 12  1  0
 12 13  1  0
 13 14  1  0
 14 15  2  0
 15 16  1  0
 16 17  2  0
 17 18  1  0
 17 19  1  0
 19 20  2  0
 19 21  1  0
 21 22  1  0
 22 23  1  0
 23 24  1  0
 24 25  2  0
 25 26  1  0
 26 27  1  0
 27 28  1  0
 26 29  2  0
 29 30  1  0
 30 31  1  0
 31 32  1  0
 32 33  1  0
 33 34  2  0
 34 35  1  0
 35 36  1  0
 36 37  1  0
 35 38  2  0
 38 39  1  0
  4 40  1  0
 40 41  1  0
 40 42  2  0
 18 13  2  0
 39 22  1  0
 22 16  1  0
 30 23  2  0
 39 32  2  0
M  ISO  5   1   1   3   3  28   4  37   5  41   2
M  END
>  <symbol>  (446) 
FITCLys

>  <m_abbr>  (446) 
FITCLys

>  <m_name>  (446) 
N-epsilon-FITC-L-lysine (thiourea)

>  <m_type>  (446) 
aa

>  <m_subtype>  (446) 
modified

>  <m_Rgroups>  (446) 
[H],[OH],[H],[H],[H]

>  <m_chem_types>  (446) 
1:backbone_n,2:backbone_c,3:backbone_n_mod,4:aryl_phenol_o,5:aryl_phenol_o

>  <m_activation_policy>  (446) 
canonical-sites-v1

$$$$

     RDKit          2D

 35 37  0  0  0  0  0  0  0  0999 V2000
   -8.7592    3.7639    0.0000 R   0  0  0  0  0  1  0  0  0  0  0  0
   -8.0758    2.4286    0.0000 N   0  0  0  0  0  0  0  0  0  0  0  0
   -6.5777    2.3529    0.0000 R   0  0  0  0  0  1  0  0  0  0  0  0
   -8.8904    1.1691    0.0000 C   0  0  0  0  0  0  0  0  0  0  0  0
   -8.2069   -0.1661    0.0000 C   0  0  0  0  0  0  0  0  0  0  0  0
   -6.7088   -0.2418    0.0000 C   0  0  0  0  0  0  0  0  0  0  0  0
   -6.0253   -1.5771    0.0000 C   0  0  0  0  0  0  0  0  0  0  0  0
   -4.5272   -1.6528    0.0000 C   0  0  0  0  0  0  0  0  0  0  0  0
   -3.8437   -2.9880    0.0000 N   0  0  0  0  0  0  0  0  0  0  0  0
   -4.6583   -4.2475    0.0000 R   0  0  0  0  0  1  0  0  0  0  0  0
   -2.3457   -3.0637    0.0000 C   0  0  0  0  0  0  0  0  0  0  0  0
   -1.6622   -4.3989    0.0000 O   0  0  0  0  0  0  0  0  0  0  0  0
   -1.5310   -1.8042    0.0000 C   0  0  0  0  0  0  0  0  0  0  0  0
   -0.0330   -1.8799    0.0000 C   0  0  0  0  0  0  0  0  0  0  0  0
    0.7817   -0.6204    0.0000 C   0  0  0  0  0  0  0  0  0  0  0  0
    2.2797   -0.6961    0.0000 C   0  0  0  0  0  0  0  0  0  0  0  0
    3.0943    0.5635    0.0000 C   0  0  0  0  0  0  0  0  0  0  0  0
    4.5921    0.6448    0.0000 N   0  0  0  0  0  0  0  0  0  0  0  0
    4.9777    2.0944    0.0000 C   0  0  0  0  0  0  0  0  0  0  0  0
    6.4258    2.4853    0.0000 C   0  0  0  0  0  0  0  0  0  0  0  0
    7.4885    1.4266    0.0000 C   0  0  0  0  0  0  0  0  0  0  0  0
    8.9863    1.5079    0.0000 C   0  0  0  0  0  0  0  0  0  0  0  0
    9.8009    2.7675    0.0000 C   0  0  0  0  0  0  0  0  0  0  0  0
    9.5264    0.1086    0.0000 C   0  0  0  0  0  0  0  0  0  0  0  0
    8.3625   -0.8376    0.0000 C   0  0  0  0  0  0  0  0  0  0  0  0
    8.4438   -2.3354    0.0000 C   0  0  0  0  0  0  0  0  0  0  0  0
    7.1029   -0.0230    0.0000 N   0  0  0  0  0  0  0  0  0  0  0  0
    5.6548   -0.4139    0.0000 B   0  0  0  0  0  0  0  0  0  0  0  0
    4.4277   -1.2766    0.0000 F   0  0  0  0  0  0  0  0  0  0  0  0
    6.2912   -1.7722    0.0000 F   0  0  0  0  0  0  0  0  0  0  0  0
    3.7181    2.9090    0.0000 C   0  0  0  0  0  0  0  0  0  0  0  0
    2.5542    1.9628    0.0000 C   0  0  0  0  0  0  0  0  0  0  0  0
  -10.3884    1.2448    0.0000 C   0  0  0  0  0  0  0  0  0  0  0  0
  -11.0719    2.5800    0.0000 R   0  0  0  0  0  1  0  0  0  0  0  0
  -11.2031   -0.0147    0.0000 O   0  0  0  0  0  0  0  0  0  0  0  0
  1  2  1  0
  2  3  1  0
  2  4  1  0
  4  5  1  1
  5  6  1  0
  6  7  1  0
  7  8  1  0
  8  9  1  0
  9 10  1  0
  9 11  1  0
 11 12  2  0
 11 13  1  0
 13 14  1  0
 14 15  1  0
 15 16  1  0
 16 17  1  0
 17 18  2  0
 18 19  1  0
 19 20  2  0
 20 21  1  0
 21 22  2  0
 22 23  1  0
 22 24  1  0
 24 25  2  0
 25 26  1  0
 25 27  1  0
 27 28  1  0
 28 29  1  0
 28 30  1  0
 19 31  1  0
 31 32  2  0
  4 33  1  0
 33 34  1  0
 33 35  2  0
 32 17  1  0
 28 18  1  0
 27 21  1  0
M  CHG  2  18   1  28  -1
M  ISO  4   1   1   3   3  10   4  34   2
M  END
>  <symbol>  (447) 
BDPFLLys

>  <m_abbr>  (447) 
BDPFLLys

>  <m_name>  (447) 
N-epsilon-BODIPY-FL-C5-L-lysine

>  <m_type>  (447) 
aa

>  <m_subtype>  (447) 
modified

>  <m_Rgroups>  (447) 
[H],[OH],[H],[H]

>  <m_chem_types>  (447) 
1:backbone_n,2:backbone_c,3:backbone_n_mod,4:amide_nh

>  <m_activation_policy>  (447) 
canonical-sites-v1

$$$$

     RDKit          2D

 41 44  0  0  0  0  0  0  0  0999 V2000
   -6.7727    3.0987    0.0000 R   0  0  0  0  0  1  0  0  0  0  0  0
   -6.2733    1.6843    0.0000 N   0  0  0  0  0  0  0  0  0  0  0  0
   -4.7986    1.4096    0.0000 R   0  0  0  0  0  1  0  0  0  0  0  0
   -7.2485    0.5446    0.0000 C   0  0  0  0  0  0  0  0  0  0  0  0
   -6.7491   -0.8699    0.0000 C   0  0  0  0  0  0  0  0  0  0  0  0
   -5.2744   -1.1446    0.0000 C   0  0  0  0  0  0  0  0  0  0  0  0
   -4.7750   -2.5590    0.0000 C   0  0  0  0  0  0  0  0  0  0  0  0
   -3.3004   -2.8337    0.0000 C   0  0  0  0  0  0  0  0  0  0  0  0
   -2.8010   -4.2481    0.0000 N   0  0  0  0  0  0  0  0  0  0  0  0
   -3.7762   -5.3878    0.0000 R   0  0  0  0  0  1  0  0  0  0  0  0
   -1.3263   -4.5228    0.0000 C   0  0  0  0  0  0  0  0  0  0  0  0
   -0.8269   -5.9372    0.0000 O   0  0  0  0  0  0  0  0  0  0  0  0
   -0.3511   -3.3831    0.0000 C   0  0  0  0  0  0  0  0  0  0  0  0
   -0.8505   -1.9687    0.0000 C   0  0  0  0  0  0  0  0  0  0  0  0
    0.1247   -0.8290    0.0000 C   0  0  0  0  0  0  0  0  0  0  0  0
    1.5993   -1.1037    0.0000 C   0  0  0  0  0  0  0  0  0  0  0  0
    2.5745    0.0361    0.0000 C   0  0  0  0  0  0  0  0  0  0  0  0
    4.0492   -0.2386    0.0000 C   0  0  0  0  0  0  0  0  0  0  0  0
    4.5486   -1.6531    0.0000 C   0  0  0  0  0  0  0  0  0  0  0  0
    6.0232   -1.9278    0.0000 C   0  0  0  0  0  0  0  0  0  0  0  0
    6.9984   -0.7880    0.0000 C   0  0  0  0  0  0  0  0  0  0  0  0
    8.4731   -1.0627    0.0000 N   0  0  0  0  0  0  0  0  0  0  0  0
    8.9725   -2.4772    0.0000 C   0  0  0  0  0  0  0  0  0  0  0  0
    9.4483    0.0770    0.0000 C   0  0  0  0  0  0  0  0  0  0  0  0
    6.4990    0.6264    0.0000 C   0  0  0  0  0  0  0  0  0  0  0  0
    5.0244    0.9011    0.0000 C   0  0  0  0  0  0  0  0  0  0  0  0
    4.5250    2.3155    0.0000 O   0  0  0  0  0  0  0  0  0  0  0  0
    3.0503    2.5902    0.0000 C   0  0  0  0  0  0  0  0  0  0  0  0
    2.5509    4.0046    0.0000 C   0  0  0  0  0  0  0  0  0  0  0  0
    1.0763    4.2793    0.0000 C   0  0  0  0  0  0  0  0  0  0  0  0
    0.5769    5.6937    0.0000 N   0  0  0  0  0  0  0  0  0  0  0  0
    1.5521    6.8335    0.0000 C   0  0  0  0  0  0  0  0  0  0  0  0
   -0.8978    5.9684    0.0000 C   0  0  0  0  0  0  0  0  0  0  0  0
    0.1011    3.1396    0.0000 C   0  0  0  0  0  0  0  0  0  0  0  0
    0.6005    1.7252    0.0000 C   0  0  0  0  0  0  0  0  0  0  0  0
    2.0751    1.4505    0.0000 C   0  0  0  0  0  0  0  0  0  0  0  0
    2.0987   -2.5181    0.0000 C   0  0  0  0  0  0  0  0  0  0  0  0
    1.1235   -3.6578    0.0000 C   0  0  0  0  0  0  0  0  0  0  0  0
   -8.7231    0.8193    0.0000 C   0  0  0  0  0  0  0  0  0  0  0  0
   -9.2225    2.2337    0.0000 R   0  0  0  0  0  1  0  0  0  0  0  0
   -9.6983   -0.3205    0.0000 O   0  0  0  0  0  0  0  0  0  0  0  0
  1  2  1  0
  2  3  1  0
  2  4  1  0
  4  5  1  1
  5  6  1  0
  6  7  1  0
  7  8  1  0
  8  9  1  0
  9 10  1  0
  9 11  1  0
 11 12  2  0
 11 13  1  0
 13 14  1  0
 14 15  2  0
 15 16  1  0
 16 17  1  0
 17 18  2  0
 18 19  1  0
 19 20  2  0
 20 21  1  0
 21 22  2  0
 22 23  1  0
 22 24  1  0
 21 25  1  0
 25 26  2  0
 26 27  1  0
 27 28  1  0
 28 29  1  0
 29 30  2  0
 30 31  1  0
 31 32  1  0
 31 33  1  0
 30 34  1  0
 34 35  2  0
 35 36  1  0
 16 37  2  0
 37 38  1  0
  4 39  1  0
 39 40  1  0
 39 41  2  0
 38 13  2  0
 36 17  1  0
 26 18  1  0
 36 28  2  0
M  CHG  1  22   1
M  ISO  4   1   1   3   3  10   4  40   2
M  END
>  <symbol>  (448) 
TAMRALys

>  <m_abbr>  (448) 
TAMRALys

>  <m_name>  (448) 
N-epsilon-5-TAMRA-L-lysine

>  <m_type>  (448) 
aa

>  <m_subtype>  (448) 
modified

>  <m_Rgroups>  (448) 
[H],[OH],[H],[H]

>  <m_chem_types>  (448) 
1:backbone_n,2:backbone_c,3:backbone_n_mod,4:amide_nh

>  <m_activation_policy>  (448) 
canonical-sites-v1

$$$$

     RDKit          2D

 43 46  0  0  0  0  0  0  0  0999 V2000
    8.0044    3.3686    0.0000 R   0  0  0  0  0  1  0  0  0  0  0  0
    7.5944    1.9258    0.0000 N   0  0  0  0  0  0  0  0  0  0  0  0
    6.1398    1.5595    0.0000 R   0  0  0  0  0  1  0  0  0  0  0  0
    8.6389    0.8492    0.0000 C   0  0  0  0  0  0  0  0  0  0  0  0
    8.2288   -0.5936    0.0000 C   0  0  0  0  0  0  0  0  0  0  0  0
    6.7742   -0.9599    0.0000 C   0  0  0  0  0  0  0  0  0  0  0  0
    6.3641   -2.4028    0.0000 C   0  0  0  0  0  0  0  0  0  0  0  0
    4.9095   -2.7691    0.0000 C   0  0  0  0  0  0  0  0  0  0  0  0
    4.4995   -4.2119    0.0000 N   0  0  0  0  0  0  0  0  0  0  0  0
    5.5440   -5.2885    0.0000 R   0  0  0  0  0  1  0  0  0  0  0  0
    3.0449   -4.5782    0.0000 C   0  0  0  0  0  0  0  0  0  0  0  0
    2.6348   -6.0211    0.0000 O   0  0  0  0  0  0  0  0  0  0  0  0
    2.0004   -3.5017    0.0000 C   0  0  0  0  0  0  0  0  0  0  0  0
    0.5458   -3.8679    0.0000 C   0  0  0  0  0  0  0  0  0  0  0  0
   -0.4987   -2.7914    0.0000 C   0  0  0  0  0  0  0  0  0  0  0  0
   -1.9533   -3.1577    0.0000 C   0  0  0  0  0  0  0  0  0  0  0  0
   -2.9978   -2.0811    0.0000 C   0  0  0  0  0  0  0  0  0  0  0  0
   -4.4524   -2.4474    0.0000 N   0  0  0  0  0  0  0  0  0  0  0  0
   -5.7400   -1.6779    0.0000 C   0  0  0  0  0  0  0  0  0  0  0  0
   -6.1063   -0.2233    0.0000 C   0  0  0  0  0  0  0  0  0  0  0  0
   -5.0297    0.8212    0.0000 C   0  0  0  0  0  0  0  0  0  0  0  0
   -5.3960    2.2758    0.0000 C   0  0  0  0  0  0  0  0  0  0  0  0
   -4.3194    3.3204    0.0000 C   0  0  0  0  0  0  0  0  0  0  0  0
   -2.8416    3.0633    0.0000 N   0  0  0  0  0  0  0  0  0  0  0  0
   -2.1809    1.7167    0.0000 C   0  0  0  0  0  0  0  0  0  0  0  0
   -2.1405    4.3894    0.0000 C   0  0  0  0  0  0  0  0  0  0  0  0
   -0.6859    4.7557    0.0000 C   0  0  0  0  0  0  0  0  0  0  0  0
   -0.2759    6.1986    0.0000 C   0  0  0  0  0  0  0  0  0  0  0  0
   -1.3204    7.2751    0.0000 C   0  0  0  0  0  0  0  0  0  0  0  0
   -2.7750    6.9088    0.0000 C   0  0  0  0  0  0  0  0  0  0  0  0
   -3.1850    5.4660    0.0000 C   0  0  0  0  0  0  0  0  0  0  0  0
   -4.5317    4.8053    0.0000 C   0  0  0  0  0  0  0  0  0  0  0  0
   -5.0480    6.2136    0.0000 C   0  0  0  0  0  0  0  0  0  0  0  0
   -5.9863    4.4390    0.0000 C   0  0  0  0  0  0  0  0  0  0  0  0
   -6.5095   -2.9654    0.0000 C   0  0  0  0  0  0  0  0  0  0  0  0
   -7.8198   -3.6957    0.0000 C   0  0  0  0  0  0  0  0  0  0  0  0
   -7.8424   -5.1955    0.0000 C   0  0  0  0  0  0  0  0  0  0  0  0
   -6.5549   -5.9651    0.0000 C   0  0  0  0  0  0  0  0  0  0  0  0
   -5.2446   -5.2348    0.0000 C   0  0  0  0  0  0  0  0  0  0  0  0
   -5.2220   -3.7350    0.0000 C   0  0  0  0  0  0  0  0  0  0  0  0
   10.0935    1.2155    0.0000 C   0  0  0  0  0  0  0  0  0  0  0  0
   10.5035    2.6584    0.0000 R   0  0  0  0  0  1  0  0  0  0  0  0
   11.1380    0.1389    0.0000 O   0  0  0  0  0  0  0  0  0  0  0  0
  1  2  1  0
  2  3  1  0
  2  4  1  0
  4  5  1  6
  5  6  1  0
  6  7  1  0
  7  8  1  0
  8  9  1  0
  9 10  1  0
  9 11  1  0
 11 12  2  0
 11 13  1  0
 13 14  1  0
 14 15  1  0
 15 16  1  0
 16 17  1  0
 17 18  1  0
 18 19  1  0
 19 20  2  0
 20 21  1  0
 21 22  2  0
 22 23  1  0
 23 24  2  0
 24 25  1  0
 24 26  1  0
 26 27  2  0
 27 28  1  0
 28 29  2  0
 29 30  1  0
 30 31  2  0
 31 32  1  0
 32 33  1  0
 32 34  1  0
 19 35  1  0
 35 36  2  0
 36 37  1  0
 37 38  2  0
 38 39  1  0
 39 40  2  0
  4 41  1  0
 41 42  1  0
 41 43  2  0
 40 18  1  0
 32 23  1  0
 40 35  1  0
 31 26  1  0
M  CHG  1  24   1
M  ISO  4   1   1   3   3  10   4  42   2
M  END
>  <symbol>  (449) 
Cy3Lys

>  <m_abbr>  (449) 
Cy3Lys

>  <m_name>  (449) 
N-epsilon-Cy3-L-lysine (non-sulfonated)

>  <m_type>  (449) 
aa

>  <m_subtype>  (449) 
modified

>  <m_Rgroups>  (449) 
[H],[OH],[H],[H]

>  <m_chem_types>  (449) 
1:backbone_n,2:backbone_c,3:backbone_n_mod,4:amide_nh

>  <m_activation_policy>  (449) 
canonical-sites-v1

$$$$

     RDKit          2D

 18 18  0  0  0  0  0  0  0  0999 V2000
   -3.3850    2.3467    0.0000 R   0  0  0  0  0  1  0  0  0  0  0  0
   -2.3401    1.2705    0.0000 N   0  0  0  0  0  0  0  0  0  0  0  0
   -0.8856    1.6374    0.0000 R   0  0  0  0  0  1  0  0  0  0  0  0
   -2.7496   -0.1725    0.0000 C   0  0  0  0  0  0  0  0  0  0  0  0
   -1.7047   -1.2487    0.0000 C   0  0  0  0  0  0  0  0  0  0  0  0
   -0.2503   -0.8818    0.0000 C   0  0  0  0  0  0  0  0  0  0  0  0
    0.1593    0.5612    0.0000 C   0  0  0  0  0  0  0  0  0  0  0  0
    1.6137    0.9280    0.0000 C   0  0  0  0  0  0  0  0  0  0  0  0
    2.6586   -0.1482    0.0000 C   0  0  0  0  0  0  0  0  0  0  0  0
    4.1131    0.2186    0.0000 C   0  0  0  0  0  0  0  0  0  0  0  0
    5.5675    0.5855    0.0000 F   0  0  0  0  0  0  0  0  0  0  0  0
    4.4799   -1.2358    0.0000 F   0  0  0  0  0  0  0  0  0  0  0  0
    3.7463    1.6731    0.0000 F   0  0  0  0  0  0  0  0  0  0  0  0
    2.2491   -1.5912    0.0000 C   0  0  0  0  0  0  0  0  0  0  0  0
    0.7946   -1.9580    0.0000 C   0  0  0  0  0  0  0  0  0  0  0  0
   -4.2041   -0.5393    0.0000 C   0  0  0  0  0  0  0  0  0  0  0  0
   -5.2490    0.5369    0.0000 R   0  0  0  0  0  1  0  0  0  0  0  0
   -4.6136   -1.9823    0.0000 O   0  0  0  0  0  0  0  0  0  0  0  0
  1  2  1  0
  2  3  1  0
  2  4  1  0
  4  5  1  6
  5  6  1  0
  6  7  1  0
  7  8  2  0
  8  9  1  0
  9 10  1  0
 10 11  1  0
 10 12  1  0
 10 13  1  0
  9 14  2  0
 14 15  1  0
  4 16  1  0
 16 17  1  0
 16 18  2  0
 15  6  2  0
M  ISO  3   1   1   3   3  17   2
M  END
>  <symbol>  (450) 
D_Phe_4CF3

>  <m_abbr>  (450) 
D_Phe_4CF3

>  <m_name>  (450) 
D-4-(Trifluoromethyl)phenylalanine

>  <m_type>  (450) 
aa

>  <m_subtype>  (450) 
modified

>  <m_Rgroups>  (450) 
[H],[OH],[H]

>  <m_chem_types>  (450) 
1:backbone_n,2:backbone_c,3:backbone_n_mod

>  <m_activation_policy>  (450) 
canonical-sites-v1

$$$$

     RDKit          2D

 16 16  0  0  0  0  0  0  0  0999 V2000
   -2.8884    2.3527    0.0000 R   0  0  0  0  0  1  0  0  0  0  0  0
   -1.8355    1.2843    0.0000 N   0  0  0  0  0  0  0  0  0  0  0  0
   -0.3838    1.6619    0.0000 R   0  0  0  0  0  1  0  0  0  0  0  0
   -2.2344   -0.1617    0.0000 C   0  0  0  0  0  0  0  0  0  0  0  0
   -1.1815   -1.2301    0.0000 C   0  0  0  0  0  0  0  0  0  0  0  0
    0.2702   -0.8525    0.0000 C   0  0  0  0  0  0  0  0  0  0  0  0
    0.6690    0.5935    0.0000 C   0  0  0  0  0  0  0  0  0  0  0  0
    2.1207    0.9710    0.0000 C   0  0  0  0  0  0  0  0  0  0  0  0
    3.1736   -0.0974    0.0000 C   0  0  0  0  0  0  0  0  0  0  0  0
    4.6253    0.2802    0.0000 C   0  0  0  0  0  0  0  0  0  0  0  0
    6.0770    0.6578    0.0000 N   0  0  0  0  0  0  0  0  0  0  0  0
    2.7747   -1.5434    0.0000 C   0  0  0  0  0  0  0  0  0  0  0  0
    1.3230   -1.9210    0.0000 C   0  0  0  0  0  0  0  0  0  0  0  0
   -3.6861   -0.5393    0.0000 C   0  0  0  0  0  0  0  0  0  0  0  0
   -4.7389    0.5292    0.0000 R   0  0  0  0  0  1  0  0  0  0  0  0
   -4.0849   -1.9853    0.0000 O   0  0  0  0  0  0  0  0  0  0  0  0
  1  2  1  0
  2  3  1  0
  2  4  1  0
  4  5  1  6
  5  6  1  0
  6  7  1  0
  7  8  2  0
  8  9  1  0
  9 10  1  0
 10 11  3  0
  9 12  2  0
 12 13  1  0
  4 14  1  0
 14 15  1  0
 14 16  2  0
 13  6  2  0
M  ISO  3   1   1   3   3  15   2
M  END
>  <symbol>  (451) 
D_Phe_4CN

>  <m_abbr>  (451) 
D_Phe_4CN

>  <m_name>  (451) 
D-4-Cyanophenylalanine

>  <m_type>  (451) 
aa

>  <m_subtype>  (451) 
modified

>  <m_Rgroups>  (451) 
[H],[OH],[H]

>  <m_chem_types>  (451) 
1:backbone_n,2:backbone_c,3:backbone_n_mod

>  <m_activation_policy>  (451) 
canonical-sites-v1

$$$$

     RDKit          2D

 16 16  0  0  0  0  0  0  0  0999 V2000
   -3.0227    2.2431    0.0000 R   0  0  0  0  0  1  0  0  0  0  0  0
   -1.8997    1.2486    0.0000 N   0  0  0  0  0  0  0  0  0  0  0  0
   -0.4770    1.7239    0.0000 R   0  0  0  0  0  1  0  0  0  0  0  0
   -2.1995   -0.2211    0.0000 C   0  0  0  0  0  0  0  0  0  0  0  0
   -1.0766   -1.2156    0.0000 C   0  0  0  0  0  0  0  0  0  0  0  0
    0.3462   -0.7404    0.0000 C   0  0  0  0  0  0  0  0  0  0  0  0
    0.6459    0.7294    0.0000 C   0  0  0  0  0  0  0  0  0  0  0  0
    2.0687    1.2046    0.0000 C   0  0  0  0  0  0  0  0  0  0  0  0
    3.1916    0.2101    0.0000 C   0  0  0  0  0  0  0  0  0  0  0  0
    4.6143    0.6854    0.0000 O   0  0  0  0  0  0  0  0  0  0  0  0
    5.7373   -0.3091    0.0000 C   0  0  0  0  0  0  0  0  0  0  0  0
    2.8918   -1.2596    0.0000 C   0  0  0  0  0  0  0  0  0  0  0  0
    1.4691   -1.7348    0.0000 C   0  0  0  0  0  0  0  0  0  0  0  0
   -3.6222   -0.6964    0.0000 C   0  0  0  0  0  0  0  0  0  0  0  0
   -4.7452    0.2981    0.0000 R   0  0  0  0  0  1  0  0  0  0  0  0
   -3.9220   -2.1661    0.0000 O   0  0  0  0  0  0  0  0  0  0  0  0
  1  2  1  0
  2  3  1  0
  2  4  1  0
  4  5  1  6
  5  6  1  0
  6  7  1  0
  7  8  2  0
  8  9  1  0
  9 10  1  0
 10 11  1  0
  9 12  2  0
 12 13  1  0
  4 14  1  0
 14 15  1  0
 14 16  2  0
 13  6  2  0
M  ISO  3   1   1   3   3  15   2
M  END
>  <symbol>  (452) 
D_Phe_4OMe

>  <m_abbr>  (452) 
D_Phe_4OMe

>  <m_name>  (452) 
D-4-Methoxyphenylalanine

>  <m_type>  (452) 
aa

>  <m_subtype>  (452) 
modified

>  <m_Rgroups>  (452) 
[H],[OH],[H]

>  <m_chem_types>  (452) 
1:backbone_n,2:backbone_c,3:backbone_n_mod

>  <m_activation_policy>  (452) 
canonical-sites-v1

$$$$

     RDKit          2D

 16 16  0  0  0  0  0  0  0  0999 V2000
   -3.4567    1.7873    0.0000 R   0  0  0  0  0  1  0  0  0  0  0  0
   -2.1102    1.1263    0.0000 N   0  0  0  0  0  0  0  0  0  0  0  0
   -0.8645    1.9620    0.0000 R   0  0  0  0  0  1  0  0  0  0  0  0
   -2.0094   -0.3703    0.0000 C   0  0  0  0  0  0  0  0  0  0  0  0
   -0.6629   -1.0313    0.0000 C   0  0  0  0  0  0  0  0  0  0  0  0
    0.5828   -0.1956    0.0000 C   0  0  0  0  0  0  0  0  0  0  0  0
    0.4820    1.3010    0.0000 C   0  0  0  0  0  0  0  0  0  0  0  0
    1.7277    2.1366    0.0000 C   0  0  0  0  0  0  0  0  0  0  0  0
    3.0742    1.4756    0.0000 C   0  0  0  0  0  0  0  0  0  0  0  0
    3.1750   -0.0210    0.0000 C   0  0  0  0  0  0  0  0  0  0  0  0
    4.5215   -0.6820    0.0000 O   0  0  0  0  0  0  0  0  0  0  0  0
    4.6223   -2.1786    0.0000 C   0  0  0  0  0  0  0  0  0  0  0  0
    1.9293   -0.8566    0.0000 C   0  0  0  0  0  0  0  0  0  0  0  0
   -3.2551   -1.2059    0.0000 C   0  0  0  0  0  0  0  0  0  0  0  0
   -4.6016   -0.5449    0.0000 R   0  0  0  0  0  1  0  0  0  0  0  0
   -3.1543   -2.7025    0.0000 O   0  0  0  0  0  0  0  0  0  0  0  0
  1  2  1  0
  2  3  1  0
  2  4  1  0
  4  5  1  6
  5  6  1  0
  6  7  1  0
  7  8  2  0
  8  9  1  0
  9 10  2  0
 10 11  1  0
 11 12  1  0
 10 13  1  0
  4 14  1  0
 14 15  1  0
 14 16  2  0
 13  6  2  0
M  ISO  3   1   1   3   3  15   2
M  END
>  <symbol>  (453) 
D_Phe_3OMe

>  <m_abbr>  (453) 
D_Phe_3OMe

>  <m_name>  (453) 
D-3-Methoxyphenylalanine

>  <m_type>  (453) 
aa

>  <m_subtype>  (453) 
modified

>  <m_Rgroups>  (453) 
[H],[OH],[H]

>  <m_chem_types>  (453) 
1:backbone_n,2:backbone_c,3:backbone_n_mod

>  <m_activation_policy>  (453) 
canonical-sites-v1

$$$$

     RDKit          2D

 16 16  0  0  0  0  0  0  0  0999 V2000
   -3.2946    1.8204    0.0000 R   0  0  0  0  0  1  0  0  0  0  0  0
   -1.9240    1.2109    0.0000 N   0  0  0  0  0  0  0  0  0  0  0  0
   -0.7108    2.0932    0.0000 R   0  0  0  0  0  1  0  0  0  0  0  0
   -1.7665   -0.2808    0.0000 C   0  0  0  0  0  0  0  0  0  0  0  0
   -0.3959   -0.8902    0.0000 C   0  0  0  0  0  0  0  0  0  0  0  0
    0.8173   -0.0080    0.0000 C   0  0  0  0  0  0  0  0  0  0  0  0
    0.6598    1.4837    0.0000 C   0  0  0  0  0  0  0  0  0  0  0  0
    1.8729    2.3660    0.0000 C   0  0  0  0  0  0  0  0  0  0  0  0
    3.2435    1.7565    0.0000 C   0  0  0  0  0  0  0  0  0  0  0  0
    3.4010    0.2648    0.0000 C   0  0  0  0  0  0  0  0  0  0  0  0
    2.1879   -0.6174    0.0000 C   0  0  0  0  0  0  0  0  0  0  0  0
    2.3454   -2.1092    0.0000 O   0  0  0  0  0  0  0  0  0  0  0  0
    3.7160   -2.7186    0.0000 C   0  0  0  0  0  0  0  0  0  0  0  0
   -2.9796   -1.1630    0.0000 C   0  0  0  0  0  0  0  0  0  0  0  0
   -4.3502   -0.5536    0.0000 R   0  0  0  0  0  1  0  0  0  0  0  0
   -2.8221   -2.6547    0.0000 O   0  0  0  0  0  0  0  0  0  0  0  0
  1  2  1  0
  2  3  1  0
  2  4  1  0
  4  5  1  6
  5  6  1  0
  6  7  2  0
  7  8  1  0
  8  9  2  0
  9 10  1  0
 10 11  2  0
 11 12  1  0
 12 13  1  0
  4 14  1  0
 14 15  1  0
 14 16  2  0
 11  6  1  0
M  ISO  3   1   1   3   3  15   2
M  END
>  <symbol>  (454) 
D_Phe_2OMe

>  <m_abbr>  (454) 
D_Phe_2OMe

>  <m_name>  (454) 
D-2-Methoxyphenylalanine

>  <m_type>  (454) 
aa

>  <m_subtype>  (454) 
modified

>  <m_Rgroups>  (454) 
[H],[OH],[H]

>  <m_chem_types>  (454) 
1:backbone_n,2:backbone_c,3:backbone_n_mod

>  <m_activation_policy>  (454) 
canonical-sites-v1

$$$$

     RDKit          2D

 15 15  0  0  0  0  0  0  0  0999 V2000
   -2.6971    2.1670    0.0000 R   0  0  0  0  0  1  0  0  0  0  0  0
   -1.4605    1.3179    0.0000 N   0  0  0  0  0  0  0  0  0  0  0  0
   -0.1069    1.9643    0.0000 R   0  0  0  0  0  1  0  0  0  0  0  0
   -1.5775   -0.1775    0.0000 C   0  0  0  0  0  0  0  0  0  0  0  0
   -0.3409   -1.0265    0.0000 C   0  0  0  0  0  0  0  0  0  0  0  0
    1.0127   -0.3802    0.0000 C   0  0  0  0  0  0  0  0  0  0  0  0
    1.1297    1.1153    0.0000 C   0  0  0  0  0  0  0  0  0  0  0  0
    2.4833    1.7617    0.0000 C   0  0  0  0  0  0  0  0  0  0  0  0
    3.7198    0.9126    0.0000 C   0  0  0  0  0  0  0  0  0  0  0  0
    3.6028   -0.5828    0.0000 C   0  0  0  0  0  0  0  0  0  0  0  0
    2.2492   -1.2292    0.0000 C   0  0  0  0  0  0  0  0  0  0  0  0
    2.1322   -2.7246    0.0000 Cl  0  0  0  0  0  0  0  0  0  0  0  0
   -2.9311   -0.8239    0.0000 C   0  0  0  0  0  0  0  0  0  0  0  0
   -4.1677    0.0252    0.0000 R   0  0  0  0  0  1  0  0  0  0  0  0
   -3.0481   -2.3193    0.0000 O   0  0  0  0  0  0  0  0  0  0  0  0
  1  2  1  0
  2  3  1  0
  2  4  1  0
  4  5  1  6
  5  6  1  0
  6  7  2  0
  7  8  1  0
  8  9  2  0
  9 10  1  0
 10 11  2  0
 11 12  1  0
  4 13  1  0
 13 14  1  0
 13 15  2  0
 11  6  1  0
M  ISO  3   1   1   3   3  14   2
M  END
>  <symbol>  (455) 
D_Phe_2Cl

>  <m_abbr>  (455) 
D_Phe_2Cl

>  <m_name>  (455) 
D-2-Chlorophenylalanine

>  <m_type>  (455) 
aa

>  <m_subtype>  (455) 
modified

>  <m_Rgroups>  (455) 
[H],[OH],[H]

>  <m_chem_types>  (455) 
1:backbone_n,2:backbone_c,3:backbone_n_mod

>  <m_activation_policy>  (455) 
canonical-sites-v1

$$$$

     RDKit          2D

 15 15  0  0  0  0  0  0  0  0999 V2000
   -2.6971    2.1670    0.0000 R   0  0  0  0  0  1  0  0  0  0  0  0
   -1.4605    1.3179    0.0000 N   0  0  0  0  0  0  0  0  0  0  0  0
   -0.1069    1.9643    0.0000 R   0  0  0  0  0  1  0  0  0  0  0  0
   -1.5775   -0.1775    0.0000 C   0  0  0  0  0  0  0  0  0  0  0  0
   -0.3409   -1.0265    0.0000 C   0  0  0  0  0  0  0  0  0  0  0  0
    1.0127   -0.3802    0.0000 C   0  0  0  0  0  0  0  0  0  0  0  0
    1.1297    1.1153    0.0000 C   0  0  0  0  0  0  0  0  0  0  0  0
    2.4833    1.7617    0.0000 C   0  0  0  0  0  0  0  0  0  0  0  0
    3.7198    0.9126    0.0000 C   0  0  0  0  0  0  0  0  0  0  0  0
    3.6028   -0.5828    0.0000 C   0  0  0  0  0  0  0  0  0  0  0  0
    2.2492   -1.2292    0.0000 C   0  0  0  0  0  0  0  0  0  0  0  0
    2.1322   -2.7246    0.0000 Br  0  0  0  0  0  0  0  0  0  0  0  0
   -2.9311   -0.8239    0.0000 C   0  0  0  0  0  0  0  0  0  0  0  0
   -4.1677    0.0252    0.0000 R   0  0  0  0  0  1  0  0  0  0  0  0
   -3.0481   -2.3193    0.0000 O   0  0  0  0  0  0  0  0  0  0  0  0
  1  2  1  0
  2  3  1  0
  2  4  1  0
  4  5  1  6
  5  6  1  0
  6  7  2  0
  7  8  1  0
  8  9  2  0
  9 10  1  0
 10 11  2  0
 11 12  1  0
  4 13  1  0
 13 14  1  0
 13 15  2  0
 11  6  1  0
M  ISO  3   1   1   3   3  14   2
M  END
>  <symbol>  (456) 
D_Phe_2Br

>  <m_abbr>  (456) 
D_Phe_2Br

>  <m_name>  (456) 
D-2-Bromophenylalanine

>  <m_type>  (456) 
aa

>  <m_subtype>  (456) 
modified

>  <m_Rgroups>  (456) 
[H],[OH],[H]

>  <m_chem_types>  (456) 
1:backbone_n,2:backbone_c,3:backbone_n_mod

>  <m_activation_policy>  (456) 
canonical-sites-v1

$$$$

     RDKit          2D

 15 15  0  0  0  0  0  0  0  0999 V2000
   -2.9107    2.0342    0.0000 R   0  0  0  0  0  1  0  0  0  0  0  0
   -1.6606    1.2052    0.0000 N   0  0  0  0  0  0  0  0  0  0  0  0
   -0.3176    1.8733    0.0000 R   0  0  0  0  0  1  0  0  0  0  0  0
   -1.7535   -0.2919    0.0000 C   0  0  0  0  0  0  0  0  0  0  0  0
   -0.5034   -1.1210    0.0000 C   0  0  0  0  0  0  0  0  0  0  0  0
    0.8396   -0.4529    0.0000 C   0  0  0  0  0  0  0  0  0  0  0  0
    0.9325    1.0442    0.0000 C   0  0  0  0  0  0  0  0  0  0  0  0
    2.2755    1.7123    0.0000 C   0  0  0  0  0  0  0  0  0  0  0  0
    3.5256    0.8833    0.0000 C   0  0  0  0  0  0  0  0  0  0  0  0
    3.4327   -0.6138    0.0000 C   0  0  0  0  0  0  0  0  0  0  0  0
    4.6828   -1.4428    0.0000 Br  0  0  0  0  0  0  0  0  0  0  0  0
    2.0897   -1.2819    0.0000 C   0  0  0  0  0  0  0  0  0  0  0  0
   -3.0965   -0.9600    0.0000 C   0  0  0  0  0  0  0  0  0  0  0  0
   -4.3466   -0.1310    0.0000 R   0  0  0  0  0  1  0  0  0  0  0  0
   -3.1894   -2.4572    0.0000 O   0  0  0  0  0  0  0  0  0  0  0  0
  1  2  1  0
  2  3  1  0
  2  4  1  0
  4  5  1  6
  5  6  1  0
  6  7  2  0
  7  8  1  0
  8  9  2  0
  9 10  1  0
 10 11  1  0
 10 12  2  0
  4 13  1  0
 13 14  1  0
 13 15  2  0
 12  6  1  0
M  ISO  3   1   1   3   3  14   2
M  END
>  <symbol>  (457) 
D_Phe_3Br

>  <m_abbr>  (457) 
D_Phe_3Br

>  <m_name>  (457) 
D-3-Bromophenylalanine

>  <m_type>  (457) 
aa

>  <m_subtype>  (457) 
modified

>  <m_Rgroups>  (457) 
[H],[OH],[H]

>  <m_chem_types>  (457) 
1:backbone_n,2:backbone_c,3:backbone_n_mod

>  <m_activation_policy>  (457) 
canonical-sites-v1

$$$$

     RDKit          2D

 16 16  0  0  0  0  0  0  0  0999 V2000
   -3.0766    2.1502    0.0000 R   0  0  0  0  0  1  0  0  0  0  0  0
   -1.8854    1.2385    0.0000 N   0  0  0  0  0  0  0  0  0  0  0  0
   -0.5003    1.8143    0.0000 R   0  0  0  0  0  1  0  0  0  0  0  0
   -2.0794   -0.2489    0.0000 C   0  0  0  0  0  0  0  0  0  0  0  0
   -0.8882   -1.1605    0.0000 C   0  0  0  0  0  0  0  0  0  0  0  0
    0.4969   -0.5848    0.0000 C   0  0  0  0  0  0  0  0  0  0  0  0
    0.6908    0.9026    0.0000 C   0  0  0  0  0  0  0  0  0  0  0  0
    2.0759    1.4784    0.0000 C   0  0  0  0  0  0  0  0  0  0  0  0
    3.2671    0.5667    0.0000 C   0  0  0  0  0  0  0  0  0  0  0  0
    4.6522    1.1425    0.0000 F   0  0  0  0  0  0  0  0  0  0  0  0
    3.0732   -0.9207    0.0000 C   0  0  0  0  0  0  0  0  0  0  0  0
    4.2643   -1.8323    0.0000 F   0  0  0  0  0  0  0  0  0  0  0  0
    1.6881   -1.4964    0.0000 C   0  0  0  0  0  0  0  0  0  0  0  0
   -3.4645   -0.8246    0.0000 C   0  0  0  0  0  0  0  0  0  0  0  0
   -4.6556    0.0870    0.0000 R   0  0  0  0  0  1  0  0  0  0  0  0
   -3.6584   -2.3121    0.0000 O   0  0  0  0  0  0  0  0  0  0  0  0
  1  2  1  0
  2  3  1  0
  2  4  1  0
  4  5  1  6
  5  6  1  0
  6  7  1  0
  7  8  2  0
  8  9  1  0
  9 10  1  0
  9 11  2  0
 11 12  1  0
 11 13  1  0
  4 14  1  0
 14 15  1  0
 14 16  2  0
 13  6  2  0
M  ISO  3   1   1   3   3  15   2
M  END
>  <symbol>  (458) 
D_Phe_34diF

>  <m_abbr>  (458) 
D_Phe_34diF

>  <m_name>  (458) 
D-3,4-Difluorophenylalanine

>  <m_type>  (458) 
aa

>  <m_subtype>  (458) 
modified

>  <m_Rgroups>  (458) 
[H],[OH],[H]

>  <m_chem_types>  (458) 
1:backbone_n,2:backbone_c,3:backbone_n_mod

>  <m_activation_policy>  (458) 
canonical-sites-v1

$$$$

     RDKit          2D

 16 16  0  0  0  0  0  0  0  0999 V2000
   -2.8846    2.0969    0.0000 R   0  0  0  0  0  1  0  0  0  0  0  0
   -1.7127    1.1606    0.0000 N   0  0  0  0  0  0  0  0  0  0  0  0
   -0.3159    1.7073    0.0000 R   0  0  0  0  0  1  0  0  0  0  0  0
   -1.9376   -0.3225    0.0000 C   0  0  0  0  0  0  0  0  0  0  0  0
   -0.7657   -1.2588    0.0000 C   0  0  0  0  0  0  0  0  0  0  0  0
    0.6311   -0.7121    0.0000 C   0  0  0  0  0  0  0  0  0  0  0  0
    0.8560    0.7710    0.0000 C   0  0  0  0  0  0  0  0  0  0  0  0
    2.2528    1.3177    0.0000 C   0  0  0  0  0  0  0  0  0  0  0  0
    2.4777    2.8007    0.0000 F   0  0  0  0  0  0  0  0  0  0  0  0
    3.4247    0.3814    0.0000 C   0  0  0  0  0  0  0  0  0  0  0  0
    3.1998   -1.1016    0.0000 C   0  0  0  0  0  0  0  0  0  0  0  0
    4.3717   -2.0380    0.0000 F   0  0  0  0  0  0  0  0  0  0  0  0
    1.8030   -1.6484    0.0000 C   0  0  0  0  0  0  0  0  0  0  0  0
   -3.3344   -0.8692    0.0000 C   0  0  0  0  0  0  0  0  0  0  0  0
   -4.5063    0.0671    0.0000 R   0  0  0  0  0  1  0  0  0  0  0  0
   -3.5594   -2.3522    0.0000 O   0  0  0  0  0  0  0  0  0  0  0  0
  1  2  1  0
  2  3  1  0
  2  4  1  0
  4  5  1  6
  5  6  1  0
  6  7  2  0
  7  8  1  0
  8  9  1  0
  8 10  2  0
 10 11  1  0
 11 12  1  0
 11 13  2  0
  4 14  1  0
 14 15  1  0
 14 16  2  0
 13  6  1  0
M  ISO  3   1   1   3   3  15   2
M  END
>  <symbol>  (459) 
D_Phe_35diF

>  <m_abbr>  (459) 
D_Phe_35diF

>  <m_name>  (459) 
D-3,5-Difluorophenylalanine

>  <m_type>  (459) 
aa

>  <m_subtype>  (459) 
modified

>  <m_Rgroups>  (459) 
[H],[OH],[H]

>  <m_chem_types>  (459) 
1:backbone_n,2:backbone_c,3:backbone_n_mod

>  <m_activation_policy>  (459) 
canonical-sites-v1

$$$$

     RDKit          2D

 16 16  0  0  0  0  0  0  0  0999 V2000
   -4.1591   -0.0957    0.0000 R   0  0  0  0  0  1  0  0  0  0  0  0
   -2.9189   -0.9394    0.0000 N   0  0  0  0  0  0  0  0  0  0  0  0
   -3.0295   -2.4354    0.0000 R   0  0  0  0  0  1  0  0  0  0  0  0
   -1.5681   -0.2873    0.0000 C   0  0  0  0  0  0  0  0  0  0  0  0
   -0.3279   -1.1311    0.0000 C   0  0  0  0  0  0  0  0  0  0  0  0
    1.0229   -0.4789    0.0000 C   0  0  0  0  0  0  0  0  0  0  0  0
    2.2631   -1.3227    0.0000 C   0  0  0  0  0  0  0  0  0  0  0  0
    2.1525   -2.8186    0.0000 F   0  0  0  0  0  0  0  0  0  0  0  0
    3.6139   -0.6705    0.0000 C   0  0  0  0  0  0  0  0  0  0  0  0
    3.7246    0.8254    0.0000 C   0  0  0  0  0  0  0  0  0  0  0  0
    2.4844    1.6692    0.0000 C   0  0  0  0  0  0  0  0  0  0  0  0
    1.1336    1.0170    0.0000 C   0  0  0  0  0  0  0  0  0  0  0  0
    0.3934    1.6657    0.0000 F   0  0  0  0  0  0  0  0  0  0  0  0
   -1.4574    1.2086    0.0000 C   0  0  0  0  0  0  0  0  0  0  0  0
   -2.6976    2.0524    0.0000 R   0  0  0  0  0  1  0  0  0  0  0  0
   -0.6299    1.7413    0.0000 O   0  0  0  0  0  0  0  0  0  0  0  0
  1  2  1  0
  2  3  1  0
  2  4  1  0
  4  5  1  1
  5  6  1  0
  6  7  2  0
  7  8  1  0
  7  9  1  0
  9 10  2  0
 10 11  1  0
 11 12  2  0
 12 13  1  0
  4 14  1  0
 14 15  1  0
 14 16  2  0
 12  6  1  0
M  ISO  3   1   1   3   3  15   2
M  END
>  <symbol>  (460) 
D_Phe_26diF

>  <m_abbr>  (460) 
D_Phe_26diF

>  <m_name>  (460) 
D-2,6-Difluorophenylalanine

>  <m_type>  (460) 
aa

>  <m_subtype>  (460) 
modified

>  <m_Rgroups>  (460) 
[H],[OH],[H]

>  <m_chem_types>  (460) 
1:backbone_n,2:backbone_c,3:backbone_n_mod

>  <m_activation_policy>  (460) 
canonical-sites-v1

$$$$

     RDKit          2D

 16 16  0  0  0  0  0  0  0  0999 V2000
   -2.8172    2.3306    0.0000 R   0  0  0  0  0  1  0  0  0  0  0  0
   -1.6614    1.3745    0.0000 N   0  0  0  0  0  0  0  0  0  0  0  0
   -0.2555    1.8973    0.0000 R   0  0  0  0  0  1  0  0  0  0  0  0
   -1.9116   -0.1045    0.0000 C   0  0  0  0  0  0  0  0  0  0  0  0
   -0.7558   -1.0607    0.0000 C   0  0  0  0  0  0  0  0  0  0  0  0
    0.6501   -0.5378    0.0000 C   0  0  0  0  0  0  0  0  0  0  0  0
    0.9003    0.9412    0.0000 C   0  0  0  0  0  0  0  0  0  0  0  0
    2.3062    1.4640    0.0000 C   0  0  0  0  0  0  0  0  0  0  0  0
    3.4620    0.5078    0.0000 C   0  0  0  0  0  0  0  0  0  0  0  0
    4.8679    1.0307    0.0000 F   0  0  0  0  0  0  0  0  0  0  0  0
    3.2118   -0.9711    0.0000 C   0  0  0  0  0  0  0  0  0  0  0  0
    1.8059   -1.4940    0.0000 C   0  0  0  0  0  0  0  0  0  0  0  0
    1.5557   -2.9730    0.0000 F   0  0  0  0  0  0  0  0  0  0  0  0
   -3.3175   -0.6274    0.0000 C   0  0  0  0  0  0  0  0  0  0  0  0
   -4.4733    0.3288    0.0000 R   0  0  0  0  0  1  0  0  0  0  0  0
   -3.5677   -2.1064    0.0000 O   0  0  0  0  0  0  0  0  0  0  0  0
  1  2  1  0
  2  3  1  0
  2  4  1  0
  4  5  1  6
  5  6  1  0
  6  7  1  0
  7  8  2  0
  8  9  1  0
  9 10  1  0
  9 11  2  0
 11 12  1  0
 12 13  1  0
  4 14  1  0
 14 15  1  0
 14 16  2  0
 12  6  2  0
M  ISO  3   1   1   3   3  15   2
M  END
>  <symbol>  (461) 
D_Phe_24diF

>  <m_abbr>  (461) 
D_Phe_24diF

>  <m_name>  (461) 
D-2,4-Difluorophenylalanine

>  <m_type>  (461) 
aa

>  <m_subtype>  (461) 
modified

>  <m_Rgroups>  (461) 
[H],[OH],[H]

>  <m_chem_types>  (461) 
1:backbone_n,2:backbone_c,3:backbone_n_mod

>  <m_activation_policy>  (461) 
canonical-sites-v1

$$$$

     RDKit          2D

 18 18  0  0  0  0  0  0  0  0999 V2000
   -3.3850    2.3467    0.0000 R   0  0  0  0  0  1  0  0  0  0  0  0
   -2.3401    1.2705    0.0000 N   0  0  0  0  0  0  0  0  0  0  0  0
   -0.8856    1.6374    0.0000 R   0  0  0  0  0  1  0  0  0  0  0  0
   -2.7496   -0.1725    0.0000 C   0  0  0  0  0  0  0  0  0  0  0  0
   -1.7047   -1.2487    0.0000 C   0  0  0  0  0  0  0  0  0  0  0  0
   -0.2503   -0.8818    0.0000 C   0  0  0  0  0  0  0  0  0  0  0  0
    0.1593    0.5612    0.0000 C   0  0  0  0  0  0  0  0  0  0  0  0
    1.6137    0.9280    0.0000 C   0  0  0  0  0  0  0  0  0  0  0  0
    2.6586   -0.1482    0.0000 C   0  0  0  0  0  0  0  0  0  0  0  0
    4.1131    0.2186    0.0000 C   0  0  0  0  0  0  0  0  0  0  0  0
    4.4799   -1.2358    0.0000 C   0  0  0  0  0  0  0  0  0  0  0  0
    3.7463    1.6731    0.0000 C   0  0  0  0  0  0  0  0  0  0  0  0
    5.5675    0.5855    0.0000 C   0  0  0  0  0  0  0  0  0  0  0  0
    2.2491   -1.5912    0.0000 C   0  0  0  0  0  0  0  0  0  0  0  0
    0.7946   -1.9580    0.0000 C   0  0  0  0  0  0  0  0  0  0  0  0
   -4.2041   -0.5393    0.0000 C   0  0  0  0  0  0  0  0  0  0  0  0
   -5.2490    0.5369    0.0000 R   0  0  0  0  0  1  0  0  0  0  0  0
   -4.6136   -1.9823    0.0000 O   0  0  0  0  0  0  0  0  0  0  0  0
  1  2  1  0
  2  3  1  0
  2  4  1  0
  4  5  1  6
  5  6  1  0
  6  7  1  0
  7  8  2  0
  8  9  1  0
  9 10  1  0
 10 11  1  0
 10 12  1  0
 10 13  1  0
  9 14  2  0
 14 15  1  0
  4 16  1  0
 16 17  1  0
 16 18  2  0
 15  6  2  0
M  ISO  3   1   1   3   3  17   2
M  END
>  <symbol>  (462) 
D_Phe_4tBu

>  <m_abbr>  (462) 
D_Phe_4tBu

>  <m_name>  (462) 
D-4-tert-Butylphenylalanine

>  <m_type>  (462) 
aa

>  <m_subtype>  (462) 
modified

>  <m_Rgroups>  (462) 
[H],[OH],[H]

>  <m_chem_types>  (462) 
1:backbone_n,2:backbone_c,3:backbone_n_mod

>  <m_activation_policy>  (462) 
canonical-sites-v1

$$$$

     RDKit          2D

 19 19  0  0  0  0  0  0  0  0999 V2000
    4.8248    0.0680    0.0000 R   0  0  0  0  0  1  0  0  0  0  0  0
    3.6449   -0.8582    0.0000 N   0  0  0  0  0  0  0  0  0  0  0  0
    3.8570   -2.3431    0.0000 R   0  0  0  0  0  1  0  0  0  0  0  0
    2.2528   -0.2994    0.0000 C   0  0  0  0  0  0  0  0  0  0  0  0
    1.0729   -1.2256    0.0000 C   0  0  0  0  0  0  0  0  0  0  0  0
   -0.3191   -0.6668    0.0000 C   0  0  0  0  0  0  0  0  0  0  0  0
   -1.4991   -1.5930    0.0000 C   0  0  0  0  0  0  0  0  0  0  0  0
   -1.2870   -3.0779    0.0000 F   0  0  0  0  0  0  0  0  0  0  0  0
   -2.8911   -1.0342    0.0000 C   0  0  0  0  0  0  0  0  0  0  0  0
   -4.0710   -1.9603    0.0000 F   0  0  0  0  0  0  0  0  0  0  0  0
   -3.1032    0.4507    0.0000 C   0  0  0  0  0  0  0  0  0  0  0  0
   -4.4953    1.0095    0.0000 F   0  0  0  0  0  0  0  0  0  0  0  0
   -1.9233    1.3769    0.0000 C   0  0  0  0  0  0  0  0  0  0  0  0
   -2.1354    2.8618    0.0000 F   0  0  0  0  0  0  0  0  0  0  0  0
   -0.5312    0.8181    0.0000 C   0  0  0  0  0  0  0  0  0  0  0  0
    0.1631    1.5156    0.0000 F   0  0  0  0  0  0  0  0  0  0  0  0
    2.0407    1.1855    0.0000 C   0  0  0  0  0  0  0  0  0  0  0  0
    3.2207    2.1117    0.0000 R   0  0  0  0  0  1  0  0  0  0  0  0
    1.1789    1.6607    0.0000 O   0  0  0  0  0  0  0  0  0  0  0  0
  1  2  1  0
  2  3  1  0
  2  4  1  0
  4  5  1  6
  5  6  1  0
  6  7  2  0
  7  8  1  0
  7  9  1  0
  9 10  1  0
  9 11  2  0
 11 12  1  0
 11 13  1  0
 13 14  1  0
 13 15  2  0
 15 16  1  0
  4 17  1  0
 17 18  1  0
 17 19  2  0
 15  6  1  0
M  ISO  3   1   1   3   3  18   2
M  END
>  <symbol>  (463) 
D_Phe_F5

>  <m_abbr>  (463) 
D_Phe_F5

>  <m_name>  (463) 
D-Pentafluorophenylalanine

>  <m_type>  (463) 
aa

>  <m_subtype>  (463) 
modified

>  <m_Rgroups>  (463) 
[H],[OH],[H]

>  <m_chem_types>  (463) 
1:backbone_n,2:backbone_c,3:backbone_n_mod

>  <m_activation_policy>  (463) 
canonical-sites-v1

$$$$

     RDKit          2D

 17 17  0  0  0  0  0  0  0  0999 V2000
   -3.1584    2.3389    0.0000 R   0  0  0  0  0  1  0  0  0  0  0  0
   -2.1065    1.2696    0.0000 N   0  0  0  0  0  0  0  0  0  0  0  0
   -0.6545    1.6460    0.0000 R   0  0  0  0  0  1  0  0  0  0  0  0
   -2.5066   -0.1760    0.0000 C   0  0  0  0  0  0  0  0  0  0  0  0
   -1.4547   -1.2454    0.0000 C   0  0  0  0  0  0  0  0  0  0  0  0
   -0.0026   -0.8690    0.0000 C   0  0  0  0  0  0  0  0  0  0  0  0
    0.3974    0.5766    0.0000 C   0  0  0  0  0  0  0  0  0  0  0  0
    1.8495    0.9530    0.0000 C   0  0  0  0  0  0  0  0  0  0  0  0
    2.9014   -0.1163    0.0000 C   0  0  0  0  0  0  0  0  0  0  0  0
    4.3534    0.2600    0.0000 C   0  0  0  0  0  0  0  0  0  0  0  0
    5.4054   -0.8093    0.0000 C   0  0  0  0  0  0  0  0  0  0  0  0
    4.7535    1.7057    0.0000 O   0  0  0  0  0  0  0  0  0  0  0  0
    2.5013   -1.5620    0.0000 C   0  0  0  0  0  0  0  0  0  0  0  0
    1.0493   -1.9383    0.0000 C   0  0  0  0  0  0  0  0  0  0  0  0
   -3.9586   -0.5524    0.0000 C   0  0  0  0  0  0  0  0  0  0  0  0
   -5.0106    0.5169    0.0000 R   0  0  0  0  0  1  0  0  0  0  0  0
   -4.3587   -1.9980    0.0000 O   0  0  0  0  0  0  0  0  0  0  0  0
  1  2  1  0
  2  3  1  0
  2  4  1  0
  4  5  1  6
  5  6  1  0
  6  7  1  0
  7  8  2  0
  8  9  1  0
  9 10  1  0
 10 11  1  0
 10 12  2  0
  9 13  2  0
 13 14  1  0
  4 15  1  0
 15 16  1  0
 15 17  2  0
 14  6  2  0
M  ISO  3   1   1   3   3  16   2
M  END
>  <symbol>  (464) 
D_Phe_4Ac

>  <m_abbr>  (464) 
D_Phe_4Ac

>  <m_name>  (464) 
D-4-Acetylphenylalanine

>  <m_type>  (464) 
aa

>  <m_subtype>  (464) 
modified

>  <m_Rgroups>  (464) 
[H],[OH],[H]

>  <m_chem_types>  (464) 
1:backbone_n,2:backbone_c,3:backbone_n_mod

>  <m_activation_policy>  (464) 
canonical-sites-v1

$$$$

     RDKit          2D

 17 17  0  0  0  0  0  0  0  0999 V2000
   -3.4693    1.8019    0.0000 R   0  0  0  0  0  1  0  0  0  0  0  0
   -2.0662    1.2714    0.0000 N   0  0  0  0  0  0  0  0  0  0  0  0
   -0.9053    2.2212    0.0000 R   0  0  0  0  0  1  0  0  0  0  0  0
   -1.8241   -0.2089    0.0000 C   0  0  0  0  0  0  0  0  0  0  0  0
   -0.4211   -0.7394    0.0000 C   0  0  0  0  0  0  0  0  0  0  0  0
    0.7399    0.2104    0.0000 C   0  0  0  0  0  0  0  0  0  0  0  0
    0.4978    1.6907    0.0000 C   0  0  0  0  0  0  0  0  0  0  0  0
    1.6587    2.6406    0.0000 C   0  0  0  0  0  0  0  0  0  0  0  0
    3.0618    2.1101    0.0000 C   0  0  0  0  0  0  0  0  0  0  0  0
    3.3039    0.6297    0.0000 C   0  0  0  0  0  0  0  0  0  0  0  0
    2.1429   -0.3201    0.0000 C   0  0  0  0  0  0  0  0  0  0  0  0
    2.3850   -1.8004    0.0000 N   0  0  0  0  0  0  0  0  0  0  0  0
    1.2241   -2.7503    0.0000 O   0  0  0  0  0  0  0  0  0  0  0  0
    3.7881   -2.3309    0.0000 O   0  0  0  0  0  0  0  0  0  0  0  0
   -2.9851   -1.1587    0.0000 C   0  0  0  0  0  0  0  0  0  0  0  0
   -4.3881   -0.6282    0.0000 R   0  0  0  0  0  1  0  0  0  0  0  0
   -2.7430   -2.6391    0.0000 O   0  0  0  0  0  0  0  0  0  0  0  0
  1  2  1  0
  2  3  1  0
  2  4  1  0
  4  5  1  6
  5  6  1  0
  6  7  2  0
  7  8  1  0
  8  9  2  0
  9 10  1  0
 10 11  2  0
 11 12  1  0
 12 13  2  0
 12 14  1  0
  4 15  1  0
 15 16  1  0
 15 17  2  0
 11  6  1  0
M  CHG  2  12   1  14  -1
M  ISO  3   1   1   3   3  16   2
M  END
>  <symbol>  (465) 
D_Phe_2NO2

>  <m_abbr>  (465) 
D_Phe_2NO2

>  <m_name>  (465) 
D-2-Nitrophenylalanine

>  <m_type>  (465) 
aa

>  <m_subtype>  (465) 
modified

>  <m_Rgroups>  (465) 
[H],[OH],[H]

>  <m_chem_types>  (465) 
1:backbone_n,2:backbone_c,3:backbone_n_mod

>  <m_activation_policy>  (465) 
canonical-sites-v1

$$$$

     RDKit          2D

 17 17  0  0  0  0  0  0  0  0999 V2000
   -3.7845    1.8026    0.0000 R   0  0  0  0  0  1  0  0  0  0  0  0
   -2.4423    1.1330    0.0000 N   0  0  0  0  0  0  0  0  0  0  0  0
   -1.1912    1.9606    0.0000 R   0  0  0  0  0  1  0  0  0  0  0  0
   -2.3510   -0.3643    0.0000 C   0  0  0  0  0  0  0  0  0  0  0  0
   -1.0088   -1.0339    0.0000 C   0  0  0  0  0  0  0  0  0  0  0  0
    0.2422   -0.2062    0.0000 C   0  0  0  0  0  0  0  0  0  0  0  0
    0.1510    1.2910    0.0000 C   0  0  0  0  0  0  0  0  0  0  0  0
    1.4020    2.1186    0.0000 C   0  0  0  0  0  0  0  0  0  0  0  0
    2.7443    1.4490    0.0000 C   0  0  0  0  0  0  0  0  0  0  0  0
    2.8355   -0.0482    0.0000 C   0  0  0  0  0  0  0  0  0  0  0  0
    4.1778   -0.7178    0.0000 N   0  0  0  0  0  0  0  0  0  0  0  0
    5.4288    0.1098    0.0000 O   0  0  0  0  0  0  0  0  0  0  0  0
    4.2690   -2.2150    0.0000 O   0  0  0  0  0  0  0  0  0  0  0  0
    1.5845   -0.8758    0.0000 C   0  0  0  0  0  0  0  0  0  0  0  0
   -3.6020   -1.1919    0.0000 C   0  0  0  0  0  0  0  0  0  0  0  0
   -4.9443   -0.5223    0.0000 R   0  0  0  0  0  1  0  0  0  0  0  0
   -3.5108   -2.6891    0.0000 O   0  0  0  0  0  0  0  0  0  0  0  0
  1  2  1  0
  2  3  1  0
  2  4  1  0
  4  5  1  6
  5  6  1  0
  6  7  1  0
  7  8  2  0
  8  9  1  0
  9 10  2  0
 10 11  1  0
 11 12  2  0
 11 13  1  0
 10 14  1  0
  4 15  1  0
 15 16  1  0
 15 17  2  0
 14  6  2  0
M  CHG  2  11   1  13  -1
M  ISO  3   1   1   3   3  16   2
M  END
>  <symbol>  (466) 
D_Phe_3NO2

>  <m_abbr>  (466) 
D_Phe_3NO2

>  <m_name>  (466) 
D-3-Nitrophenylalanine

>  <m_type>  (466) 
aa

>  <m_subtype>  (466) 
modified

>  <m_Rgroups>  (466) 
[H],[OH],[H]

>  <m_chem_types>  (466) 
1:backbone_n,2:backbone_c,3:backbone_n_mod

>  <m_activation_policy>  (466) 
canonical-sites-v1

$$$$

     RDKit          2D

 16 16  0  0  0  0  0  0  0  0999 V2000
   -3.4567    1.7873    0.0000 R   0  0  0  0  0  1  0  0  0  0  0  0
   -2.1102    1.1263    0.0000 N   0  0  0  0  0  0  0  0  0  0  0  0
   -0.8645    1.9620    0.0000 R   0  0  0  0  0  1  0  0  0  0  0  0
   -2.0094   -0.3703    0.0000 C   0  0  0  0  0  0  0  0  0  0  0  0
   -0.6629   -1.0313    0.0000 C   0  0  0  0  0  0  0  0  0  0  0  0
    0.5828   -0.1956    0.0000 C   0  0  0  0  0  0  0  0  0  0  0  0
    0.4820    1.3010    0.0000 C   0  0  0  0  0  0  0  0  0  0  0  0
    1.7277    2.1366    0.0000 C   0  0  0  0  0  0  0  0  0  0  0  0
    3.0742    1.4756    0.0000 C   0  0  0  0  0  0  0  0  0  0  0  0
    3.1750   -0.0210    0.0000 C   0  0  0  0  0  0  0  0  0  0  0  0
    4.5215   -0.6820    0.0000 O   0  0  0  0  0  0  0  0  0  0  0  0
    4.6223   -2.1786    0.0000 R   0  0  0  0  0  1  0  0  0  0  0  0
    1.9293   -0.8566    0.0000 C   0  0  0  0  0  0  0  0  0  0  0  0
   -3.2551   -1.2059    0.0000 C   0  0  0  0  0  0  0  0  0  0  0  0
   -4.6016   -0.5449    0.0000 R   0  0  0  0  0  1  0  0  0  0  0  0
   -3.1543   -2.7025    0.0000 O   0  0  0  0  0  0  0  0  0  0  0  0
  1  2  1  0
  2  3  1  0
  2  4  1  0
  4  5  1  6
  5  6  1  0
  6  7  1  0
  7  8  2  0
  8  9  1  0
  9 10  2  0
 10 11  1  0
 11 12  1  0
 10 13  1  0
  4 14  1  0
 14 15  1  0
 14 16  2  0
 13  6  2  0
M  ISO  4   1   1   3   3  12   4  15   2
M  END
>  <symbol>  (467) 
D_Phe_3OH

>  <m_abbr>  (467) 
D_Phe_3OH

>  <m_name>  (467) 
D-3-Hydroxyphenylalanine

>  <m_type>  (467) 
aa

>  <m_subtype>  (467) 
modified

>  <m_Rgroups>  (467) 
[H],[OH],[H],[H]

>  <m_chem_types>  (467) 
1:backbone_n,2:backbone_c,3:backbone_n_mod,4:aryl_phenol_o

>  <m_activation_policy>  (467) 
canonical-sites-v1

$$$$

     RDKit          2D

 19 20  0  0  0  0  0  0  0  0999 V2000
   -4.2475   -1.6475    0.0000 R   0  0  0  0  0  1  0  0  0  0  0  0
   -2.8651   -1.0651    0.0000 N   0  0  0  0  0  0  0  0  0  0  0  0
   -1.6696   -1.9710    0.0000 R   0  0  0  0  0  1  0  0  0  0  0  0
   -2.6783    0.4232    0.0000 C   0  0  0  0  0  0  0  0  0  0  0  0
   -1.2960    1.0056    0.0000 C   0  0  0  0  0  0  0  0  0  0  0  0
   -0.1005    0.0997    0.0000 C   0  0  0  0  0  0  0  0  0  0  0  0
   -0.1307   -1.4000    0.0000 C   0  0  0  0  0  0  0  0  0  0  0  0
    1.2863   -1.8921    0.0000 N   0  0  0  0  0  0  0  0  0  0  0  0
    1.7210   -3.3278    0.0000 R   0  0  0  0  0  1  0  0  0  0  0  0
    2.1922   -0.6966    0.0000 C   0  0  0  0  0  0  0  0  0  0  0  0
    3.6868   -0.5699    0.0000 C   0  0  0  0  0  0  0  0  0  0  0  0
    4.3244    0.7879    0.0000 C   0  0  0  0  0  0  0  0  0  0  0  0
    5.8190    0.9146    0.0000 F   0  0  0  0  0  0  0  0  0  0  0  0
    3.4673    2.0189    0.0000 C   0  0  0  0  0  0  0  0  0  0  0  0
    1.9727    1.8922    0.0000 C   0  0  0  0  0  0  0  0  0  0  0  0
    1.3351    0.5344    0.0000 C   0  0  0  0  0  0  0  0  0  0  0  0
   -3.8739    1.3292    0.0000 C   0  0  0  0  0  0  0  0  0  0  0  0
   -5.2562    0.7468    0.0000 R   0  0  0  0  0  1  0  0  0  0  0  0
   -3.6871    2.8175    0.0000 O   0  0  0  0  0  0  0  0  0  0  0  0
  1  2  1  0
  2  3  1  0
  2  4  1  0
  4  5  1  1
  5  6  1  0
  6  7  2  0
  7  8  1  0
  8  9  1  0
  8 10  1  0
 10 11  1  0
 11 12  2  0
 12 13  1  0
 12 14  1  0
 14 15  2  0
 15 16  1  0
  4 17  1  0
 17 18  1  0
 17 19  2  0
 16  6  1  0
 16 10  2  0
M  ISO  4   1   1   3   3   9   4  18   2
M  END
>  <symbol>  (468) 
D_Trp_5F

>  <m_abbr>  (468) 
D_Trp_5F

>  <m_name>  (468) 
D-5-Fluorotryptophan

>  <m_type>  (468) 
aa

>  <m_subtype>  (468) 
modified

>  <m_Rgroups>  (468) 
[H],[OH],[H],[H]

>  <m_chem_types>  (468) 
1:backbone_n,2:backbone_c,3:backbone_n_mod,4:aromatic_nh

>  <m_activation_policy>  (468) 
canonical-sites-v1

$$$$

     RDKit          2D

 19 20  0  0  0  0  0  0  0  0999 V2000
   -4.2475   -1.6475    0.0000 R   0  0  0  0  0  1  0  0  0  0  0  0
   -2.8651   -1.0651    0.0000 N   0  0  0  0  0  0  0  0  0  0  0  0
   -1.6696   -1.9710    0.0000 R   0  0  0  0  0  1  0  0  0  0  0  0
   -2.6783    0.4232    0.0000 C   0  0  0  0  0  0  0  0  0  0  0  0
   -1.2960    1.0056    0.0000 C   0  0  0  0  0  0  0  0  0  0  0  0
   -0.1005    0.0997    0.0000 C   0  0  0  0  0  0  0  0  0  0  0  0
   -0.1307   -1.4000    0.0000 C   0  0  0  0  0  0  0  0  0  0  0  0
    1.2863   -1.8921    0.0000 N   0  0  0  0  0  0  0  0  0  0  0  0
    1.7210   -3.3278    0.0000 R   0  0  0  0  0  1  0  0  0  0  0  0
    2.1922   -0.6966    0.0000 C   0  0  0  0  0  0  0  0  0  0  0  0
    3.6868   -0.5699    0.0000 C   0  0  0  0  0  0  0  0  0  0  0  0
    4.3244    0.7879    0.0000 C   0  0  0  0  0  0  0  0  0  0  0  0
    5.8190    0.9146    0.0000 C   0  0  0  0  0  0  0  0  0  0  0  0
    3.4673    2.0189    0.0000 C   0  0  0  0  0  0  0  0  0  0  0  0
    1.9727    1.8922    0.0000 C   0  0  0  0  0  0  0  0  0  0  0  0
    1.3351    0.5344    0.0000 C   0  0  0  0  0  0  0  0  0  0  0  0
   -3.8739    1.3292    0.0000 C   0  0  0  0  0  0  0  0  0  0  0  0
   -5.2562    0.7468    0.0000 R   0  0  0  0  0  1  0  0  0  0  0  0
   -3.6871    2.8175    0.0000 O   0  0  0  0  0  0  0  0  0  0  0  0
  1  2  1  0
  2  3  1  0
  2  4  1  0
  4  5  1  1
  5  6  1  0
  6  7  2  0
  7  8  1  0
  8  9  1  0
  8 10  1  0
 10 11  1  0
 11 12  2  0
 12 13  1  0
 12 14  1  0
 14 15  2  0
 15 16  1  0
  4 17  1  0
 17 18  1  0
 17 19  2  0
 16  6  1  0
 16 10  2  0
M  ISO  4   1   1   3   3   9   4  18   2
M  END
>  <symbol>  (469) 
D_Trp_5Me

>  <m_abbr>  (469) 
D_Trp_5Me

>  <m_name>  (469) 
D-5-Methyltryptophan

>  <m_type>  (469) 
aa

>  <m_subtype>  (469) 
modified

>  <m_Rgroups>  (469) 
[H],[OH],[H],[H]

>  <m_chem_types>  (469) 
1:backbone_n,2:backbone_c,3:backbone_n_mod,4:aromatic_nh

>  <m_activation_policy>  (469) 
canonical-sites-v1

$$$$

     RDKit          2D

 19 20  0  0  0  0  0  0  0  0999 V2000
   -4.2475   -1.6475    0.0000 R   0  0  0  0  0  1  0  0  0  0  0  0
   -2.8651   -1.0651    0.0000 N   0  0  0  0  0  0  0  0  0  0  0  0
   -1.6696   -1.9710    0.0000 R   0  0  0  0  0  1  0  0  0  0  0  0
   -2.6783    0.4232    0.0000 C   0  0  0  0  0  0  0  0  0  0  0  0
   -1.2960    1.0056    0.0000 C   0  0  0  0  0  0  0  0  0  0  0  0
   -0.1005    0.0997    0.0000 C   0  0  0  0  0  0  0  0  0  0  0  0
   -0.1307   -1.4000    0.0000 C   0  0  0  0  0  0  0  0  0  0  0  0
    1.2863   -1.8921    0.0000 N   0  0  0  0  0  0  0  0  0  0  0  0
    1.7210   -3.3278    0.0000 R   0  0  0  0  0  1  0  0  0  0  0  0
    2.1922   -0.6966    0.0000 C   0  0  0  0  0  0  0  0  0  0  0  0
    3.6868   -0.5699    0.0000 C   0  0  0  0  0  0  0  0  0  0  0  0
    4.3244    0.7879    0.0000 C   0  0  0  0  0  0  0  0  0  0  0  0
    5.8190    0.9146    0.0000 Br  0  0  0  0  0  0  0  0  0  0  0  0
    3.4673    2.0189    0.0000 C   0  0  0  0  0  0  0  0  0  0  0  0
    1.9727    1.8922    0.0000 C   0  0  0  0  0  0  0  0  0  0  0  0
    1.3351    0.5344    0.0000 C   0  0  0  0  0  0  0  0  0  0  0  0
   -3.8739    1.3292    0.0000 C   0  0  0  0  0  0  0  0  0  0  0  0
   -5.2562    0.7468    0.0000 R   0  0  0  0  0  1  0  0  0  0  0  0
   -3.6871    2.8175    0.0000 O   0  0  0  0  0  0  0  0  0  0  0  0
  1  2  1  0
  2  3  1  0
  2  4  1  0
  4  5  1  1
  5  6  1  0
  6  7  2  0
  7  8  1  0
  8  9  1  0
  8 10  1  0
 10 11  1  0
 11 12  2  0
 12 13  1  0
 12 14  1  0
 14 15  2  0
 15 16  1  0
  4 17  1  0
 17 18  1  0
 17 19  2  0
 16  6  1  0
 16 10  2  0
M  ISO  4   1   1   3   3   9   4  18   2
M  END
>  <symbol>  (470) 
D_Trp_5Br

>  <m_abbr>  (470) 
D_Trp_5Br

>  <m_name>  (470) 
D-5-Bromotryptophan

>  <m_type>  (470) 
aa

>  <m_subtype>  (470) 
modified

>  <m_Rgroups>  (470) 
[H],[OH],[H],[H]

>  <m_chem_types>  (470) 
1:backbone_n,2:backbone_c,3:backbone_n_mod,4:aromatic_nh

>  <m_activation_policy>  (470) 
canonical-sites-v1

$$$$

     RDKit          2D

 20 21  0  0  0  0  0  0  0  0999 V2000
   -4.5632   -1.6816    0.0000 R   0  0  0  0  0  1  0  0  0  0  0  0
   -3.1873   -1.0842    0.0000 N   0  0  0  0  0  0  0  0  0  0  0  0
   -1.9819   -1.9770    0.0000 R   0  0  0  0  0  1  0  0  0  0  0  0
   -3.0168    0.4061    0.0000 C   0  0  0  0  0  0  0  0  0  0  0  0
   -1.6409    1.0036    0.0000 C   0  0  0  0  0  0  0  0  0  0  0  0
   -0.4355    0.1108    0.0000 C   0  0  0  0  0  0  0  0  0  0  0  0
   -0.4493   -1.3892    0.0000 C   0  0  0  0  0  0  0  0  0  0  0  0
    0.9729   -1.8658    0.0000 N   0  0  0  0  0  0  0  0  0  0  0  0
    1.4233   -3.2966    0.0000 R   0  0  0  0  0  1  0  0  0  0  0  0
    1.8657   -0.6604    0.0000 C   0  0  0  0  0  0  0  0  0  0  0  0
    3.3589   -0.5174    0.0000 C   0  0  0  0  0  0  0  0  0  0  0  0
    3.9816    0.8472    0.0000 C   0  0  0  0  0  0  0  0  0  0  0  0
    5.4747    0.9903    0.0000 O   0  0  0  0  0  0  0  0  0  0  0  0
    6.3452   -0.2313    0.0000 C   0  0  0  0  0  0  0  0  0  0  0  0
    3.1111    2.0688    0.0000 C   0  0  0  0  0  0  0  0  0  0  0  0
    1.6180    1.9258    0.0000 C   0  0  0  0  0  0  0  0  0  0  0  0
    0.9953    0.5611    0.0000 C   0  0  0  0  0  0  0  0  0  0  0  0
   -4.2221    1.2989    0.0000 C   0  0  0  0  0  0  0  0  0  0  0  0
   -5.5980    0.7015    0.0000 R   0  0  0  0  0  1  0  0  0  0  0  0
   -4.0516    2.7892    0.0000 O   0  0  0  0  0  0  0  0  0  0  0  0
  1  2  1  0
  2  3  1  0
  2  4  1  0
  4  5  1  1
  5  6  1  0
  6  7  2  0
  7  8  1  0
  8  9  1  0
  8 10  1  0
 10 11  1  0
 11 12  2  0
 12 13  1  0
 13 14  1  0
 12 15  1  0
 15 16  2  0
 16 17  1  0
  4 18  1  0
 18 19  1  0
 18 20  2  0
 17  6  1  0
 17 10  2  0
M  ISO  4   1   1   3   3   9   4  19   2
M  END
>  <symbol>  (471) 
D_Trp_5OMe

>  <m_abbr>  (471) 
D_Trp_5OMe

>  <m_name>  (471) 
D-5-Methoxytryptophan

>  <m_type>  (471) 
aa

>  <m_subtype>  (471) 
modified

>  <m_Rgroups>  (471) 
[H],[OH],[H],[H]

>  <m_chem_types>  (471) 
1:backbone_n,2:backbone_c,3:backbone_n_mod,4:aromatic_nh

>  <m_activation_policy>  (471) 
canonical-sites-v1

$$$$

     RDKit          2D

 19 20  0  0  0  0  0  0  0  0999 V2000
   -4.2806   -1.4552    0.0000 R   0  0  0  0  0  1  0  0  0  0  0  0
   -2.8579   -0.9798    0.0000 N   0  0  0  0  0  0  0  0  0  0  0  0
   -1.7348   -1.9742    0.0000 R   0  0  0  0  0  1  0  0  0  0  0  0
   -2.5582    0.4900    0.0000 C   0  0  0  0  0  0  0  0  0  0  0  0
   -1.1356    0.9654    0.0000 C   0  0  0  0  0  0  0  0  0  0  0  0
   -0.0125   -0.0290    0.0000 C   0  0  0  0  0  0  0  0  0  0  0  0
   -0.1569   -1.5220    0.0000 C   0  0  0  0  0  0  0  0  0  0  0  0
    1.2185   -2.1207    0.0000 N   0  0  0  0  0  0  0  0  0  0  0  0
    1.5425   -3.5853    0.0000 R   0  0  0  0  0  1  0  0  0  0  0  0
    2.2128   -0.9977    0.0000 C   0  0  0  0  0  0  0  0  0  0  0  0
    3.7128   -0.9852    0.0000 C   0  0  0  0  0  0  0  0  0  0  0  0
    4.4519    0.3200    0.0000 C   0  0  0  0  0  0  0  0  0  0  0  0
    3.6912    1.6128    0.0000 C   0  0  0  0  0  0  0  0  0  0  0  0
    4.4303    2.9180    0.0000 F   0  0  0  0  0  0  0  0  0  0  0  0
    2.1912    1.6003    0.0000 C   0  0  0  0  0  0  0  0  0  0  0  0
    1.4521    0.2951    0.0000 C   0  0  0  0  0  0  0  0  0  0  0  0
   -3.6813    1.4844    0.0000 C   0  0  0  0  0  0  0  0  0  0  0  0
   -5.1039    1.0090    0.0000 R   0  0  0  0  0  1  0  0  0  0  0  0
   -3.3816    2.9541    0.0000 O   0  0  0  0  0  0  0  0  0  0  0  0
  1  2  1  0
  2  3  1  0
  2  4  1  0
  4  5  1  1
  5  6  1  0
  6  7  2  0
  7  8  1  0
  8  9  1  0
  8 10  1  0
 10 11  1  0
 11 12  2  0
 12 13  1  0
 13 14  1  0
 13 15  2  0
 15 16  1  0
  4 17  1  0
 17 18  1  0
 17 19  2  0
 16  6  1  0
 16 10  2  0
M  ISO  4   1   1   3   3   9   4  18   2
M  END
>  <symbol>  (472) 
D_Trp_6F

>  <m_abbr>  (472) 
D_Trp_6F

>  <m_name>  (472) 
D-6-Fluorotryptophan

>  <m_type>  (472) 
aa

>  <m_subtype>  (472) 
modified

>  <m_Rgroups>  (472) 
[H],[OH],[H],[H]

>  <m_chem_types>  (472) 
1:backbone_n,2:backbone_c,3:backbone_n_mod,4:aromatic_nh

>  <m_activation_policy>  (472) 
canonical-sites-v1

$$$$

     RDKit          2D

 18 19  0  0  0  0  0  0  0  0999 V2000
   -3.8349   -1.8005    0.0000 R   0  0  0  0  0  1  0  0  0  0  0  0
   -2.4851   -1.1463    0.0000 N   0  0  0  0  0  0  0  0  0  0  0  0
   -1.2436   -1.9882    0.0000 R   0  0  0  0  0  1  0  0  0  0  0  0
   -2.3767    0.3497    0.0000 C   0  0  0  0  0  0  0  0  0  0  0  0
   -1.0269    1.0039    0.0000 C   0  0  0  0  0  0  0  0  0  0  0  0
    0.2146    0.1620    0.0000 C   0  0  0  0  0  0  0  0  0  0  0  0
    0.2632   -1.3372    0.0000 C   0  0  0  0  0  0  0  0  0  0  0  0
    1.7040   -1.7543    0.0000 N   0  0  0  0  0  0  0  0  0  0  0  0
    2.2135   -3.1651    0.0000 R   0  0  0  0  0  1  0  0  0  0  0  0
    2.5459   -0.5128    0.0000 C   0  0  0  0  0  0  0  0  0  0  0  0
    4.0318   -0.3078    0.0000 N   0  0  0  0  0  0  0  0  0  0  0  0
    4.5972    1.0816    0.0000 C   0  0  0  0  0  0  0  0  0  0  0  0
    3.6767    2.2659    0.0000 C   0  0  0  0  0  0  0  0  0  0  0  0
    2.1908    2.0609    0.0000 C   0  0  0  0  0  0  0  0  0  0  0  0
    1.6254    0.6715    0.0000 C   0  0  0  0  0  0  0  0  0  0  0  0
   -3.6182    1.1916    0.0000 C   0  0  0  0  0  0  0  0  0  0  0  0
   -4.9680    0.5375    0.0000 R   0  0  0  0  0  1  0  0  0  0  0  0
   -3.5098    2.6877    0.0000 O   0  0  0  0  0  0  0  0  0  0  0  0
  1  2  1  0
  2  3  1  0
  2  4  1  0
  4  5  1  1
  5  6  1  0
  6  7  2  0
  7  8  1  0
  8  9  1  0
  8 10  1  0
 10 11  2  0
 11 12  1  0
 12 13  2  0
 13 14  1  0
 14 15  2  0
  4 16  1  0
 16 17  1  0
 16 18  2  0
 15  6  1  0
 15 10  1  0
M  ISO  4   1   1   3   3   9   4  17   2
M  END
>  <symbol>  (473) 
D_Trp_7Aza

>  <m_abbr>  (473) 
D_Trp_7Aza

>  <m_name>  (473) 
D-7-Azatryptophan

>  <m_type>  (473) 
aa

>  <m_subtype>  (473) 
modified

>  <m_Rgroups>  (473) 
[H],[OH],[H],[H]

>  <m_chem_types>  (473) 
1:backbone_n,2:backbone_c,3:backbone_n_mod,4:aromatic_nh

>  <m_activation_policy>  (473) 
canonical-sites-v1

$$$$

     RDKit          2D

 18 19  0  0  0  0  0  0  0  0999 V2000
   -3.8349   -1.8005    0.0000 R   0  0  0  0  0  1  0  0  0  0  0  0
   -2.4851   -1.1463    0.0000 N   0  0  0  0  0  0  0  0  0  0  0  0
   -1.2436   -1.9882    0.0000 R   0  0  0  0  0  1  0  0  0  0  0  0
   -2.3767    0.3497    0.0000 C   0  0  0  0  0  0  0  0  0  0  0  0
   -1.0269    1.0039    0.0000 C   0  0  0  0  0  0  0  0  0  0  0  0
    0.2146    0.1620    0.0000 C   0  0  0  0  0  0  0  0  0  0  0  0
    0.2632   -1.3372    0.0000 C   0  0  0  0  0  0  0  0  0  0  0  0
    1.7040   -1.7543    0.0000 N   0  0  0  0  0  0  0  0  0  0  0  0
    2.2135   -3.1651    0.0000 C   0  0  0  0  0  0  0  0  0  0  0  0
    2.5459   -0.5128    0.0000 C   0  0  0  0  0  0  0  0  0  0  0  0
    4.0318   -0.3078    0.0000 C   0  0  0  0  0  0  0  0  0  0  0  0
    4.5972    1.0816    0.0000 C   0  0  0  0  0  0  0  0  0  0  0  0
    3.6767    2.2659    0.0000 C   0  0  0  0  0  0  0  0  0  0  0  0
    2.1908    2.0609    0.0000 C   0  0  0  0  0  0  0  0  0  0  0  0
    1.6254    0.6715    0.0000 C   0  0  0  0  0  0  0  0  0  0  0  0
   -3.6182    1.1916    0.0000 C   0  0  0  0  0  0  0  0  0  0  0  0
   -4.9680    0.5375    0.0000 R   0  0  0  0  0  1  0  0  0  0  0  0
   -3.5098    2.6877    0.0000 O   0  0  0  0  0  0  0  0  0  0  0  0
  1  2  1  0
  2  3  1  0
  2  4  1  0
  4  5  1  1
  5  6  1  0
  6  7  2  0
  7  8  1  0
  8  9  1  0
  8 10  1  0
 10 11  2  0
 11 12  1  0
 12 13  2  0
 13 14  1  0
 14 15  2  0
  4 16  1  0
 16 17  1  0
 16 18  2  0
 15  6  1  0
 15 10  1  0
M  ISO  3   1   1   3   3  17   2
M  END
>  <symbol>  (474) 
D_Trp_1Me

>  <m_abbr>  (474) 
D_Trp_1Me

>  <m_name>  (474) 
D-1-Methyltryptophan

>  <m_type>  (474) 
aa

>  <m_subtype>  (474) 
modified

>  <m_Rgroups>  (474) 
[H],[OH],[H]

>  <m_chem_types>  (474) 
1:backbone_n,2:backbone_c,3:backbone_n_mod

>  <m_activation_policy>  (474) 
canonical-sites-v1

$$$$

     RDKit          2D

 19 20  0  0  0  0  0  0  0  0999 V2000
   -3.9960   -1.9420    0.0000 R   0  0  0  0  0  1  0  0  0  0  0  0
   -2.6837   -1.2154    0.0000 N   0  0  0  0  0  0  0  0  0  0  0  0
   -1.3983   -1.9886    0.0000 R   0  0  0  0  0  1  0  0  0  0  0  0
   -2.6567    0.2843    0.0000 C   0  0  0  0  0  0  0  0  0  0  0  0
   -1.3444    1.0109    0.0000 C   0  0  0  0  0  0  0  0  0  0  0  0
   -0.0591    0.2377    0.0000 C   0  0  0  0  0  0  0  0  0  0  0  0
    0.0709   -1.2567    0.0000 C   0  0  0  0  0  0  0  0  0  0  0  0
    1.5323   -1.5948    0.0000 N   0  0  0  0  0  0  0  0  0  0  0  0
    2.1177   -2.9759    0.0000 R   0  0  0  0  0  1  0  0  0  0  0  0
    2.3055   -0.3095    0.0000 C   0  0  0  0  0  0  0  0  0  0  0  0
    3.7781   -0.0240    0.0000 C   0  0  0  0  0  0  0  0  0  0  0  0
    4.7616   -1.1565    0.0000 F   0  0  0  0  0  0  0  0  0  0  0  0
    4.2671    1.3940    0.0000 C   0  0  0  0  0  0  0  0  0  0  0  0
    3.2836    2.5266    0.0000 C   0  0  0  0  0  0  0  0  0  0  0  0
    1.8110    2.2411    0.0000 C   0  0  0  0  0  0  0  0  0  0  0  0
    1.3220    0.8231    0.0000 C   0  0  0  0  0  0  0  0  0  0  0  0
   -3.9421    1.0575    0.0000 C   0  0  0  0  0  0  0  0  0  0  0  0
   -5.2544    0.3310    0.0000 R   0  0  0  0  0  1  0  0  0  0  0  0
   -3.9152    2.5573    0.0000 O   0  0  0  0  0  0  0  0  0  0  0  0
  1  2  1  0
  2  3  1  0
  2  4  1  0
  4  5  1  1
  5  6  1  0
  6  7  2  0
  7  8  1  0
  8  9  1  0
  8 10  1  0
 10 11  2  0
 11 12  1  0
 11 13  1  0
 13 14  2  0
 14 15  1  0
 15 16  2  0
  4 17  1  0
 17 18  1  0
 17 19  2  0
 16  6  1  0
 16 10  1  0
M  ISO  4   1   1   3   3   9   4  18   2
M  END
>  <symbol>  (475) 
D_Trp_4F

>  <m_abbr>  (475) 
D_Trp_4F

>  <m_name>  (475) 
D-4-Fluorotryptophan

>  <m_type>  (475) 
aa

>  <m_subtype>  (475) 
modified

>  <m_Rgroups>  (475) 
[H],[OH],[H],[H]

>  <m_chem_types>  (475) 
1:backbone_n,2:backbone_c,3:backbone_n_mod,4:aromatic_nh

>  <m_activation_policy>  (475) 
canonical-sites-v1

$$$$

     RDKit          2D

 17 17  0  0  0  0  0  0  0  0999 V2000
   -3.4004    2.1682    0.0000 R   0  0  0  0  0  1  0  0  0  0  0  0
   -2.2177    1.2455    0.0000 N   0  0  0  0  0  0  0  0  0  0  0  0
   -0.8274    1.8085    0.0000 R   0  0  0  0  0  1  0  0  0  0  0  0
   -2.4254   -0.2400    0.0000 C   0  0  0  0  0  0  0  0  0  0  0  0
   -1.2428   -1.1627    0.0000 C   0  0  0  0  0  0  0  0  0  0  0  0
    0.1476   -0.5997    0.0000 C   0  0  0  0  0  0  0  0  0  0  0  0
    0.3553    0.8858    0.0000 C   0  0  0  0  0  0  0  0  0  0  0  0
    1.7457    1.4487    0.0000 C   0  0  0  0  0  0  0  0  0  0  0  0
    2.9284    0.5261    0.0000 C   0  0  0  0  0  0  0  0  0  0  0  0
    4.3187    1.0890    0.0000 O   0  0  0  0  0  0  0  0  0  0  0  0
    5.5014    0.1663    0.0000 R   0  0  0  0  0  1  0  0  0  0  0  0
    2.7207   -0.9595    0.0000 C   0  0  0  0  0  0  0  0  0  0  0  0
    3.9033   -1.8821    0.0000 F   0  0  0  0  0  0  0  0  0  0  0  0
    1.3303   -1.5224    0.0000 C   0  0  0  0  0  0  0  0  0  0  0  0
   -3.8158   -0.8029    0.0000 C   0  0  0  0  0  0  0  0  0  0  0  0
   -4.9985    0.1197    0.0000 R   0  0  0  0  0  1  0  0  0  0  0  0
   -4.0235   -2.2885    0.0000 O   0  0  0  0  0  0  0  0  0  0  0  0
  1  2  1  0
  2  3  1  0
  2  4  1  0
  4  5  1  6
  5  6  1  0
  6  7  1  0
  7  8  2  0
  8  9  1  0
  9 10  1  0
 10 11  1  0
  9 12  2  0
 12 13  1  0
 12 14  1  0
  4 15  1  0
 15 16  1  0
 15 17  2  0
 14  6  2  0
M  ISO  4   1   1   3   3  11   4  16   2
M  END
>  <symbol>  (476) 
D_Tyr_3F

>  <m_abbr>  (476) 
D_Tyr_3F

>  <m_name>  (476) 
D-3-Fluorotyrosine

>  <m_type>  (476) 
aa

>  <m_subtype>  (476) 
modified

>  <m_Rgroups>  (476) 
[H],[OH],[H],[H]

>  <m_chem_types>  (476) 
1:backbone_n,2:backbone_c,3:backbone_n_mod,4:aryl_phenol_o

>  <m_activation_policy>  (476) 
canonical-sites-v1

$$$$

     RDKit          2D

 17 17  0  0  0  0  0  0  0  0999 V2000
   -3.4004    2.1682    0.0000 R   0  0  0  0  0  1  0  0  0  0  0  0
   -2.2177    1.2455    0.0000 N   0  0  0  0  0  0  0  0  0  0  0  0
   -0.8274    1.8085    0.0000 R   0  0  0  0  0  1  0  0  0  0  0  0
   -2.4254   -0.2400    0.0000 C   0  0  0  0  0  0  0  0  0  0  0  0
   -1.2428   -1.1627    0.0000 C   0  0  0  0  0  0  0  0  0  0  0  0
    0.1476   -0.5997    0.0000 C   0  0  0  0  0  0  0  0  0  0  0  0
    0.3553    0.8858    0.0000 C   0  0  0  0  0  0  0  0  0  0  0  0
    1.7457    1.4487    0.0000 C   0  0  0  0  0  0  0  0  0  0  0  0
    2.9284    0.5261    0.0000 C   0  0  0  0  0  0  0  0  0  0  0  0
    4.3187    1.0890    0.0000 O   0  0  0  0  0  0  0  0  0  0  0  0
    5.5014    0.1663    0.0000 R   0  0  0  0  0  1  0  0  0  0  0  0
    2.7207   -0.9595    0.0000 C   0  0  0  0  0  0  0  0  0  0  0  0
    3.9033   -1.8821    0.0000 Cl  0  0  0  0  0  0  0  0  0  0  0  0
    1.3303   -1.5224    0.0000 C   0  0  0  0  0  0  0  0  0  0  0  0
   -3.8158   -0.8029    0.0000 C   0  0  0  0  0  0  0  0  0  0  0  0
   -4.9985    0.1197    0.0000 R   0  0  0  0  0  1  0  0  0  0  0  0
   -4.0235   -2.2885    0.0000 O   0  0  0  0  0  0  0  0  0  0  0  0
  1  2  1  0
  2  3  1  0
  2  4  1  0
  4  5  1  6
  5  6  1  0
  6  7  1  0
  7  8  2  0
  8  9  1  0
  9 10  1  0
 10 11  1  0
  9 12  2  0
 12 13  1  0
 12 14  1  0
  4 15  1  0
 15 16  1  0
 15 17  2  0
 14  6  2  0
M  ISO  4   1   1   3   3  11   4  16   2
M  END
>  <symbol>  (477) 
D_Tyr_3Cl

>  <m_abbr>  (477) 
D_Tyr_3Cl

>  <m_name>  (477) 
D-3-Chlorotyrosine

>  <m_type>  (477) 
aa

>  <m_subtype>  (477) 
modified

>  <m_Rgroups>  (477) 
[H],[OH],[H],[H]

>  <m_chem_types>  (477) 
1:backbone_n,2:backbone_c,3:backbone_n_mod,4:aryl_phenol_o

>  <m_activation_policy>  (477) 
canonical-sites-v1

$$$$

     RDKit          2D

 17 17  0  0  0  0  0  0  0  0999 V2000
   -3.4004    2.1682    0.0000 R   0  0  0  0  0  1  0  0  0  0  0  0
   -2.2177    1.2455    0.0000 N   0  0  0  0  0  0  0  0  0  0  0  0
   -0.8274    1.8085    0.0000 R   0  0  0  0  0  1  0  0  0  0  0  0
   -2.4254   -0.2400    0.0000 C   0  0  0  0  0  0  0  0  0  0  0  0
   -1.2428   -1.1627    0.0000 C   0  0  0  0  0  0  0  0  0  0  0  0
    0.1476   -0.5997    0.0000 C   0  0  0  0  0  0  0  0  0  0  0  0
    0.3553    0.8858    0.0000 C   0  0  0  0  0  0  0  0  0  0  0  0
    1.7457    1.4487    0.0000 C   0  0  0  0  0  0  0  0  0  0  0  0
    2.9284    0.5261    0.0000 C   0  0  0  0  0  0  0  0  0  0  0  0
    4.3187    1.0890    0.0000 O   0  0  0  0  0  0  0  0  0  0  0  0
    5.5014    0.1663    0.0000 R   0  0  0  0  0  1  0  0  0  0  0  0
    2.7207   -0.9595    0.0000 C   0  0  0  0  0  0  0  0  0  0  0  0
    3.9033   -1.8821    0.0000 Br  0  0  0  0  0  0  0  0  0  0  0  0
    1.3303   -1.5224    0.0000 C   0  0  0  0  0  0  0  0  0  0  0  0
   -3.8158   -0.8029    0.0000 C   0  0  0  0  0  0  0  0  0  0  0  0
   -4.9985    0.1197    0.0000 R   0  0  0  0  0  1  0  0  0  0  0  0
   -4.0235   -2.2885    0.0000 O   0  0  0  0  0  0  0  0  0  0  0  0
  1  2  1  0
  2  3  1  0
  2  4  1  0
  4  5  1  6
  5  6  1  0
  6  7  1  0
  7  8  2  0
  8  9  1  0
  9 10  1  0
 10 11  1  0
  9 12  2  0
 12 13  1  0
 12 14  1  0
  4 15  1  0
 15 16  1  0
 15 17  2  0
 14  6  2  0
M  ISO  4   1   1   3   3  11   4  16   2
M  END
>  <symbol>  (478) 
D_Tyr_3Br

>  <m_abbr>  (478) 
D_Tyr_3Br

>  <m_name>  (478) 
D-3-Bromotyrosine

>  <m_type>  (478) 
aa

>  <m_subtype>  (478) 
modified

>  <m_Rgroups>  (478) 
[H],[OH],[H],[H]

>  <m_chem_types>  (478) 
1:backbone_n,2:backbone_c,3:backbone_n_mod,4:aryl_phenol_o

>  <m_activation_policy>  (478) 
canonical-sites-v1

$$$$

     RDKit          2D

 18 18  0  0  0  0  0  0  0  0999 V2000
   -4.7933    0.2013    0.0000 R   0  0  0  0  0  1  0  0  0  0  0  0
   -3.6319   -0.7481    0.0000 N   0  0  0  0  0  0  0  0  0  0  0  0
   -3.8735   -2.2285    0.0000 R   0  0  0  0  0  1  0  0  0  0  0  0
   -2.2291   -0.2170    0.0000 C   0  0  0  0  0  0  0  0  0  0  0  0
   -1.0678   -1.1664    0.0000 C   0  0  0  0  0  0  0  0  0  0  0  0
    0.3351   -0.6354    0.0000 C   0  0  0  0  0  0  0  0  0  0  0  0
    0.5766    0.8451    0.0000 C   0  0  0  0  0  0  0  0  0  0  0  0
   -0.1793    1.6352    0.0000 C   0  0  0  0  0  0  0  0  0  0  0  0
    1.9794    1.3761    0.0000 C   0  0  0  0  0  0  0  0  0  0  0  0
    3.1408    0.4267    0.0000 C   0  0  0  0  0  0  0  0  0  0  0  0
    4.5436    0.9578    0.0000 O   0  0  0  0  0  0  0  0  0  0  0  0
    5.7050    0.0084    0.0000 R   0  0  0  0  0  1  0  0  0  0  0  0
    2.8993   -1.0537    0.0000 C   0  0  0  0  0  0  0  0  0  0  0  0
    1.4964   -1.5847    0.0000 C   0  0  0  0  0  0  0  0  0  0  0  0
    1.2549   -3.0652    0.0000 C   0  0  0  0  0  0  0  0  0  0  0  0
   -1.9876    1.2634    0.0000 C   0  0  0  0  0  0  0  0  0  0  0  0
   -3.1489    2.2128    0.0000 R   0  0  0  0  0  1  0  0  0  0  0  0
   -1.0197    1.7723    0.0000 O   0  0  0  0  0  0  0  0  0  0  0  0
  1  2  1  0
  2  3  1  0
  2  4  1  0
  4  5  1  1
  5  6  1  0
  6  7  2  0
  7  8  1  0
  7  9  1  0
  9 10  2  0
 10 11  1  0
 11 12  1  0
 10 13  1  0
 13 14  2  0
 14 15  1  0
  4 16  1  0
 16 17  1  0
 16 18  2  0
 14  6  1  0
M  ISO  4   1   1   3   3  12   4  17   2
M  END
>  <symbol>  (479) 
D_Tyr_35diMe

>  <m_abbr>  (479) 
D_Tyr_35diMe

>  <m_name>  (479) 
D-3,5-Dimethyltyrosine

>  <m_type>  (479) 
aa

>  <m_subtype>  (479) 
modified

>  <m_Rgroups>  (479) 
[H],[OH],[H],[H]

>  <m_chem_types>  (479) 
1:backbone_n,2:backbone_c,3:backbone_n_mod,4:aryl_phenol_o

>  <m_activation_policy>  (479) 
canonical-sites-v1

$$$$

     RDKit          2D

 10 10  0  0  0  0  0  0  0  0999 V2000
   -0.6492   -2.4549    0.0000 R   0  0  0  0  0  1  0  0  0  0  0  0
    0.1568   -1.1898    0.0000 N   0  0  0  0  0  0  0  0  0  0  0  0
    1.6540   -1.0983    0.0000 C   0  0  0  0  0  0  0  0  0  0  0  0
    2.0296    0.3539    0.0000 C   0  0  0  0  0  0  0  0  0  0  0  0
    3.4252    0.9037    0.0000 F   0  0  0  0  0  0  0  0  0  0  0  0
    0.7645    1.1599    0.0000 C   0  0  0  0  0  0  0  0  0  0  0  0
   -0.3930    0.2058    0.0000 C   0  0  0  0  0  0  0  0  0  0  0  0
   -1.8452    0.5814    0.0000 C   0  0  0  0  0  0  0  0  0  0  0  0
   -2.2460    2.0268    0.0000 R   0  0  0  0  0  1  0  0  0  0  0  0
   -2.8966   -0.4885    0.0000 O   0  0  0  0  0  0  0  0  0  0  0  0
  1  2  1  0
  2  3  1  0
  3  4  1  0
  4  5  1  1
  4  6  1  0
  6  7  1  0
  7  8  1  1
  8  9  1  0
  8 10  2  0
  7  2  1  0
M  ISO  2   1   1   9   2
M  END
>  <symbol>  (480) 
D_Pro_4F_t

>  <m_abbr>  (480) 
D_Pro_4F_t

>  <m_name>  (480) 
D-trans-4-Fluoroproline

>  <m_type>  (480) 
aa

>  <m_subtype>  (480) 
modified

>  <m_Rgroups>  (480) 
[H],[OH]

>  <m_chem_types>  (480) 
1:backbone_n,2:backbone_c

>  <m_activation_policy>  (480) 
canonical-sites-v1

$$$$

     RDKit          2D

 10 10  0  0  0  0  0  0  0  0999 V2000
   -0.6492   -2.4549    0.0000 R   0  0  0  0  0  1  0  0  0  0  0  0
    0.1568   -1.1898    0.0000 N   0  0  0  0  0  0  0  0  0  0  0  0
    1.6540   -1.0983    0.0000 C   0  0  0  0  0  0  0  0  0  0  0  0
    2.0296    0.3539    0.0000 C   0  0  0  0  0  0  0  0  0  0  0  0
    3.4252    0.9037    0.0000 F   0  0  0  0  0  0  0  0  0  0  0  0
    0.7645    1.1599    0.0000 C   0  0  0  0  0  0  0  0  0  0  0  0
   -0.3930    0.2058    0.0000 C   0  0  0  0  0  0  0  0  0  0  0  0
   -1.8452    0.5814    0.0000 C   0  0  0  0  0  0  0  0  0  0  0  0
   -2.2460    2.0268    0.0000 R   0  0  0  0  0  1  0  0  0  0  0  0
   -2.8966   -0.4885    0.0000 O   0  0  0  0  0  0  0  0  0  0  0  0
  1  2  1  0
  2  3  1  0
  3  4  1  0
  4  5  1  6
  4  6  1  0
  6  7  1  0
  7  8  1  1
  8  9  1  0
  8 10  2  0
  7  2  1  0
M  ISO  2   1   1   9   2
M  END
>  <symbol>  (481) 
D_Pro_4F_c

>  <m_abbr>  (481) 
D_Pro_4F_c

>  <m_name>  (481) 
D-cis-4-Fluoroproline

>  <m_type>  (481) 
aa

>  <m_subtype>  (481) 
modified

>  <m_Rgroups>  (481) 
[H],[OH]

>  <m_chem_types>  (481) 
1:backbone_n,2:backbone_c

>  <m_activation_policy>  (481) 
canonical-sites-v1

$$$$

     RDKit          2D

 13 14  0  0  0  0  0  0  0  0999 V2000
   -1.0632   -2.3910    0.0000 R   0  0  0  0  0  1  0  0  0  0  0  0
   -0.5351   -0.9871    0.0000 N   0  0  0  0  0  0  0  0  0  0  0  0
    0.9112   -0.5891    0.0000 C   0  0  0  0  0  0  0  0  0  0  0  0
    2.1746   -1.3976    0.0000 C   0  0  0  0  0  0  0  0  0  0  0  0
    3.5065   -0.7076    0.0000 C   0  0  0  0  0  0  0  0  0  0  0  0
    3.5750    0.7908    0.0000 C   0  0  0  0  0  0  0  0  0  0  0  0
    2.3115    1.5993    0.0000 C   0  0  0  0  0  0  0  0  0  0  0  0
    0.9796    0.9093    0.0000 C   0  0  0  0  0  0  0  0  0  0  0  0
   -0.4244    1.4375    0.0000 C   0  0  0  0  0  0  0  0  0  0  0  0
   -1.3605    0.2654    0.0000 C   0  0  0  0  0  0  0  0  0  0  0  0
   -2.8589    0.3338    0.0000 C   0  0  0  0  0  0  0  0  0  0  0  0
   -3.5489    1.6657    0.0000 R   0  0  0  0  0  1  0  0  0  0  0  0
   -3.6674   -0.9296    0.0000 O   0  0  0  0  0  0  0  0  0  0  0  0
  1  2  1  0
  2  3  1  0
  3  4  2  0
  4  5  1  0
  5  6  2  0
  6  7  1  0
  7  8  2  0
  8  9  1  0
  9 10  1  0
 10 11  1  1
 11 12  1  0
 11 13  2  0
 10  2  1  0
  8  3  1  0
M  ISO  2   1   1  12   2
M  END
>  <symbol>  (482) 
D_Ind

>  <m_abbr>  (482) 
D_Ind

>  <m_name>  (482) 
D-Indoline-2-carboxylic acid

>  <m_type>  (482) 
aa

>  <m_subtype>  (482) 
modified

>  <m_Rgroups>  (482) 
[H],[OH]

>  <m_chem_types>  (482) 
1:backbone_n,2:backbone_c

>  <m_activation_policy>  (482) 
canonical-sites-v1

$$$$

     RDKit          2D

 13 12  0  0  0  0  0  0  0  0999 V2000
   -3.9663   -0.5077    0.0000 R   0  0  0  0  0  1  0  0  0  0  0  0
   -2.5665   -1.0465    0.0000 N   0  0  0  0  0  0  0  0  0  0  0  0
   -2.3331   -2.5283    0.0000 R   0  0  0  0  0  1  0  0  0  0  0  0
   -1.3999   -0.1036    0.0000 C   0  0  0  0  0  0  0  0  0  0  0  0
   -0.0000   -0.6424    0.0000 C   0  0  0  0  0  0  0  0  0  0  0  0
    1.1666    0.3005    0.0000 C   0  0  0  0  0  0  0  0  0  0  0  0
    2.5665   -0.2383    0.0000 C   0  0  0  0  0  0  0  0  0  0  0  0
    2.7998   -1.7201    0.0000 O   0  0  0  0  0  0  0  0  0  0  0  0
    3.7330    0.7046    0.0000 O   0  0  0  0  0  0  0  0  0  0  0  0
    5.1329    0.1658    0.0000 C   0  0  0  0  0  0  0  0  0  0  0  0
   -1.6332    1.3781    0.0000 C   0  0  0  0  0  0  0  0  0  0  0  0
   -0.4666    2.3211    0.0000 R   0  0  0  0  0  1  0  0  0  0  0  0
   -3.0331    1.9169    0.0000 O   0  0  0  0  0  0  0  0  0  0  0  0
  1  2  1  0
  2  3  1  0
  2  4  1  0
  4  5  1  1
  5  6  1  0
  6  7  1  0
  7  8  2  0
  7  9  1  0
  9 10  1  0
  4 11  1  0
 11 12  1  0
 11 13  2  0
M  ISO  3   1   1   3   3  12   2
M  END
>  <symbol>  (483) 
D_Glu_OMe

>  <m_abbr>  (483) 
D_Glu_OMe

>  <m_name>  (483) 
D-Glu gamma-methyl ester

>  <m_type>  (483) 
aa

>  <m_subtype>  (483) 
modified

>  <m_Rgroups>  (483) 
[H],[OH],[H]

>  <m_chem_types>  (483) 
1:backbone_n,2:backbone_c,3:backbone_n_mod

>  <m_activation_policy>  (483) 
canonical-sites-v1

$$$$

     RDKit          2D

 16 15  0  0  0  0  0  0  0  0999 V2000
   -5.0189   -0.4777    0.0000 R   0  0  0  0  0  1  0  0  0  0  0  0
   -3.6220   -1.0242    0.0000 N   0  0  0  0  0  0  0  0  0  0  0  0
   -3.3968   -2.5071    0.0000 R   0  0  0  0  0  1  0  0  0  0  0  0
   -2.4503   -0.0876    0.0000 C   0  0  0  0  0  0  0  0  0  0  0  0
   -1.0534   -0.6341    0.0000 C   0  0  0  0  0  0  0  0  0  0  0  0
    0.1183    0.3024    0.0000 C   0  0  0  0  0  0  0  0  0  0  0  0
    1.5152   -0.2440    0.0000 C   0  0  0  0  0  0  0  0  0  0  0  0
    1.7404   -1.7270    0.0000 O   0  0  0  0  0  0  0  0  0  0  0  0
    2.6869    0.6925    0.0000 O   0  0  0  0  0  0  0  0  0  0  0  0
    4.0839    0.1460    0.0000 C   0  0  0  0  0  0  0  0  0  0  0  0
    4.6303    1.5429    0.0000 C   0  0  0  0  0  0  0  0  0  0  0  0
    3.5374   -1.2509    0.0000 C   0  0  0  0  0  0  0  0  0  0  0  0
    5.4808   -0.4004    0.0000 C   0  0  0  0  0  0  0  0  0  0  0  0
   -2.6755    1.3954    0.0000 C   0  0  0  0  0  0  0  0  0  0  0  0
   -1.5038    2.3319    0.0000 R   0  0  0  0  0  1  0  0  0  0  0  0
   -4.0724    1.9418    0.0000 O   0  0  0  0  0  0  0  0  0  0  0  0
  1  2  1  0
  2  3  1  0
  2  4  1  0
  4  5  1  1
  5  6  1  0
  6  7  1  0
  7  8  2  0
  7  9  1  0
  9 10  1  0
 10 11  1  0
 10 12  1  0
 10 13  1  0
  4 14  1  0
 14 15  1  0
 14 16  2  0
M  ISO  3   1   1   3   3  15   2
M  END
>  <symbol>  (484) 
D_Glu_OtBu

>  <m_abbr>  (484) 
D_Glu_OtBu

>  <m_name>  (484) 
D-Glu gamma-tert-butyl ester

>  <m_type>  (484) 
aa

>  <m_subtype>  (484) 
modified

>  <m_Rgroups>  (484) 
[H],[OH],[H]

>  <m_chem_types>  (484) 
1:backbone_n,2:backbone_c,3:backbone_n_mod

>  <m_activation_policy>  (484) 
canonical-sites-v1

$$$$

     RDKit          2D

 19 19  0  0  0  0  0  0  0  0999 V2000
   -5.0156    2.3485    0.0000 R   0  0  0  0  0  1  0  0  0  0  0  0
   -3.7561    1.5338    0.0000 N   0  0  0  0  0  0  0  0  0  0  0  0
   -2.4208    2.2172    0.0000 R   0  0  0  0  0  1  0  0  0  0  0  0
   -3.8318    0.0357    0.0000 C   0  0  0  0  0  0  0  0  0  0  0  0
   -2.5723   -0.7789    0.0000 C   0  0  0  0  0  0  0  0  0  0  0  0
   -1.2371   -0.0955    0.0000 C   0  0  0  0  0  0  0  0  0  0  0  0
    0.0224   -0.9102    0.0000 C   0  0  0  0  0  0  0  0  0  0  0  0
   -0.0534   -2.4083    0.0000 O   0  0  0  0  0  0  0  0  0  0  0  0
    1.3577   -0.2268    0.0000 O   0  0  0  0  0  0  0  0  0  0  0  0
    2.6172   -1.0414    0.0000 C   0  0  0  0  0  0  0  0  0  0  0  0
    3.9524   -0.3580    0.0000 C   0  0  0  0  0  0  0  0  0  0  0  0
    4.0282    1.1401    0.0000 C   0  0  0  0  0  0  0  0  0  0  0  0
    5.3635    1.8235    0.0000 C   0  0  0  0  0  0  0  0  0  0  0  0
    6.6230    1.0088    0.0000 C   0  0  0  0  0  0  0  0  0  0  0  0
    6.5472   -0.4893    0.0000 C   0  0  0  0  0  0  0  0  0  0  0  0
    5.2119   -1.1727    0.0000 C   0  0  0  0  0  0  0  0  0  0  0  0
   -5.1671   -0.6477    0.0000 C   0  0  0  0  0  0  0  0  0  0  0  0
   -6.4266    0.1670    0.0000 R   0  0  0  0  0  1  0  0  0  0  0  0
   -5.2429   -2.1458    0.0000 O   0  0  0  0  0  0  0  0  0  0  0  0
  1  2  1  0
  2  3  1  0
  2  4  1  0
  4  5  1  6
  5  6  1  0
  6  7  1  0
  7  8  2  0
  7  9  1  0
  9 10  1  0
 10 11  1  0
 11 12  2  0
 12 13  1  0
 13 14  2  0
 14 15  1  0
 15 16  2  0
  4 17  1  0
 17 18  1  0
 17 19  2  0
 16 11  1  0
M  ISO  3   1   1   3   3  18   2
M  END
>  <symbol>  (485) 
D_Glu_OBn

>  <m_abbr>  (485) 
D_Glu_OBn

>  <m_name>  (485) 
D-Glu gamma-benzyl ester

>  <m_type>  (485) 
aa

>  <m_subtype>  (485) 
modified

>  <m_Rgroups>  (485) 
[H],[OH],[H]

>  <m_chem_types>  (485) 
1:backbone_n,2:backbone_c,3:backbone_n_mod

>  <m_activation_policy>  (485) 
canonical-sites-v1

$$$$

     RDKit          2D

 15 14  0  0  0  0  0  0  0  0999 V2000
   -4.4167   -0.2500    0.0000 R   0  0  0  0  0  1  0  0  0  0  0  0
   -3.1177   -1.0000    0.0000 N   0  0  0  0  0  0  0  0  0  0  0  0
   -3.1177   -2.5000    0.0000 R   0  0  0  0  0  1  0  0  0  0  0  0
   -1.8187   -0.2500    0.0000 C   0  0  0  0  0  0  0  0  0  0  0  0
   -0.5196   -1.0000    0.0000 C   0  0  0  0  0  0  0  0  0  0  0  0
    0.7794   -0.2500    0.0000 C   0  0  0  0  0  0  0  0  0  0  0  0
    0.7794    1.2500    0.0000 O   0  0  0  0  0  0  0  0  0  0  0  0
    2.0785   -1.0000    0.0000 O   0  0  0  0  0  0  0  0  0  0  0  0
    3.3775   -0.2500    0.0000 C   0  0  0  0  0  0  0  0  0  0  0  0
    4.1275   -1.5490    0.0000 C   0  0  0  0  0  0  0  0  0  0  0  0
    2.6275    1.0490    0.0000 C   0  0  0  0  0  0  0  0  0  0  0  0
    4.6765    0.5000    0.0000 C   0  0  0  0  0  0  0  0  0  0  0  0
   -1.8187    1.2500    0.0000 C   0  0  0  0  0  0  0  0  0  0  0  0
   -0.5196    2.0000    0.0000 R   0  0  0  0  0  1  0  0  0  0  0  0
   -3.1177    2.0000    0.0000 O   0  0  0  0  0  0  0  0  0  0  0  0
  1  2  1  0
  2  3  1  0
  2  4  1  0
  4  5  1  1
  5  6  1  0
  6  7  2  0
  6  8  1  0
  8  9  1  0
  9 10  1  0
  9 11  1  0
  9 12  1  0
  4 13  1  0
 13 14  1  0
 13 15  2  0
M  ISO  3   1   1   3   3  14   2
M  END
>  <symbol>  (486) 
D_Asp_OtBu

>  <m_abbr>  (486) 
D_Asp_OtBu

>  <m_name>  (486) 
D-Asp beta-tert-butyl ester

>  <m_type>  (486) 
aa

>  <m_subtype>  (486) 
modified

>  <m_Rgroups>  (486) 
[H],[OH],[H]

>  <m_chem_types>  (486) 
1:backbone_n,2:backbone_c,3:backbone_n_mod

>  <m_activation_policy>  (486) 
canonical-sites-v1

$$$$

     RDKit          2D

 18 18  0  0  0  0  0  0  0  0999 V2000
   -4.9015   -1.6339    0.0000 R   0  0  0  0  0  1  0  0  0  0  0  0
   -3.4785   -1.1595    0.0000 N   0  0  0  0  0  0  0  0  0  0  0  0
   -2.3562   -2.1547    0.0000 R   0  0  0  0  0  1  0  0  0  0  0  0
   -3.1778    0.3100    0.0000 C   0  0  0  0  0  0  0  0  0  0  0  0
   -1.7548    0.7844    0.0000 C   0  0  0  0  0  0  0  0  0  0  0  0
   -0.6325   -0.2108    0.0000 C   0  0  0  0  0  0  0  0  0  0  0  0
   -0.9332   -1.6804    0.0000 O   0  0  0  0  0  0  0  0  0  0  0  0
    0.7906    0.2635    0.0000 O   0  0  0  0  0  0  0  0  0  0  0  0
    1.9129   -0.7317    0.0000 C   0  0  0  0  0  0  0  0  0  0  0  0
    3.3359   -0.2573    0.0000 C   0  0  0  0  0  0  0  0  0  0  0  0
    3.6366    1.2122    0.0000 C   0  0  0  0  0  0  0  0  0  0  0  0
    5.0596    1.6866    0.0000 C   0  0  0  0  0  0  0  0  0  0  0  0
    6.1819    0.6914    0.0000 C   0  0  0  0  0  0  0  0  0  0  0  0
    5.8812   -0.7781    0.0000 C   0  0  0  0  0  0  0  0  0  0  0  0
    4.4582   -1.2525    0.0000 C   0  0  0  0  0  0  0  0  0  0  0  0
   -4.3001    1.3052    0.0000 C   0  0  0  0  0  0  0  0  0  0  0  0
   -5.7231    0.8309    0.0000 R   0  0  0  0  0  1  0  0  0  0  0  0
   -3.9994    2.7748    0.0000 O   0  0  0  0  0  0  0  0  0  0  0  0
  1  2  1  0
  2  3  1  0
  2  4  1  0
  4  5  1  1
  5  6  1  0
  6  7  2  0
  6  8  1  0
  8  9  1  0
  9 10  1  0
 10 11  2  0
 11 12  1  0
 12 13  2  0
 13 14  1  0
 14 15  2  0
  4 16  1  0
 16 17  1  0
 16 18  2  0
 15 10  1  0
M  ISO  3   1   1   3   3  17   2
M  END
>  <symbol>  (487) 
D_Asp_OBn

>  <m_abbr>  (487) 
D_Asp_OBn

>  <m_name>  (487) 
D-Asp beta-benzyl ester

>  <m_type>  (487) 
aa

>  <m_subtype>  (487) 
modified

>  <m_Rgroups>  (487) 
[H],[OH],[H]

>  <m_chem_types>  (487) 
1:backbone_n,2:backbone_c,3:backbone_n_mod

>  <m_activation_policy>  (487) 
canonical-sites-v1

$$$$

     RDKit          2D

 20 21  0  0  0  0  0  0  0  0999 V2000
   -4.2464   -2.0318    0.0000 R   0  0  0  0  0  1  0  0  0  0  0  0
   -2.9574   -1.2647    0.0000 N   0  0  0  0  0  0  0  0  0  0  0  0
   -1.6485   -1.9975    0.0000 R   0  0  0  0  0  1  0  0  0  0  0  0
   -2.9772    0.2352    0.0000 C   0  0  0  0  0  0  0  0  0  0  0  0
   -1.6882    1.0023    0.0000 C   0  0  0  0  0  0  0  0  0  0  0  0
   -0.3794    0.2695    0.0000 C   0  0  0  0  0  0  0  0  0  0  0  0
   -0.2029   -1.2200    0.0000 C   0  0  0  0  0  0  0  0  0  0  0  0
    1.2684   -1.5125    0.0000 N   0  0  0  0  0  0  0  0  0  0  0  0
    1.8965   -2.8746    0.0000 R   0  0  0  0  0  1  0  0  0  0  0  0
    2.0011   -0.2036    0.0000 C   0  0  0  0  0  0  0  0  0  0  0  0
    3.4641    0.1276    0.0000 C   0  0  0  0  0  0  0  0  0  0  0  0
    4.4824   -0.9737    0.0000 O   0  0  0  0  0  0  0  0  0  0  0  0
    5.9454   -0.6425    0.0000 C   0  0  0  0  0  0  0  0  0  0  0  0
    3.9087    1.5602    0.0000 C   0  0  0  0  0  0  0  0  0  0  0  0
    2.8903    2.6616    0.0000 C   0  0  0  0  0  0  0  0  0  0  0  0
    1.4274    2.3303    0.0000 C   0  0  0  0  0  0  0  0  0  0  0  0
    0.9828    0.8977    0.0000 C   0  0  0  0  0  0  0  0  0  0  0  0
   -4.2861    0.9679    0.0000 C   0  0  0  0  0  0  0  0  0  0  0  0
   -5.5751    0.2008    0.0000 R   0  0  0  0  0  1  0  0  0  0  0  0
   -4.3059    2.4678    0.0000 O   0  0  0  0  0  0  0  0  0  0  0  0
  1  2  1  0
  2  3  1  0
  2  4  1  0
  4  5  1  6
  5  6  1  0
  6  7  2  0
  7  8  1  0
  8  9  1  0
  8 10  1  0
 10 11  2  0
 11 12  1  0
 12 13  1  0
 11 14  1  0
 14 15  2  0
 15 16  1  0
 16 17  2  0
  4 18  1  0
 18 19  1  0
 18 20  2  0
 17  6  1  0
 17 10  1  0
M  ISO  4   1   1   3   3   9   4  19   2
M  END
>  <symbol>  (488) 
Trp_4OMe

>  <m_abbr>  (488) 
Trp_4OMe

>  <m_name>  (488) 
L-4-Methoxytryptophan

>  <m_type>  (488) 
aa

>  <m_subtype>  (488) 
modified

>  <m_Rgroups>  (488) 
[H],[OH],[H],[H]

>  <m_chem_types>  (488) 
1:backbone_n,2:backbone_c,3:backbone_n_mod,4:aromatic_nh

>  <m_activation_policy>  (488) 
canonical-sites-v1

$$$$

     RDKit          2D

 21 22  0  0  0  0  0  0  0  0999 V2000
   -4.9577   -1.4816    0.0000 R   0  0  0  0  0  1  0  0  0  0  0  0
   -3.5467   -0.9728    0.0000 N   0  0  0  0  0  0  0  0  0  0  0  0
   -2.4005   -1.9404    0.0000 R   0  0  0  0  0  1  0  0  0  0  0  0
   -3.2817    0.5036    0.0000 C   0  0  0  0  0  0  0  0  0  0  0  0
   -1.8707    1.0124    0.0000 C   0  0  0  0  0  0  0  0  0  0  0  0
   -0.7245    0.0448    0.0000 C   0  0  0  0  0  0  0  0  0  0  0  0
   -0.8336   -1.4512    0.0000 C   0  0  0  0  0  0  0  0  0  0  0  0
    0.5554   -2.0173    0.0000 N   0  0  0  0  0  0  0  0  0  0  0  0
    0.9139   -3.4739    0.0000 R   0  0  0  0  0  1  0  0  0  0  0  0
    1.5231   -0.8712    0.0000 C   0  0  0  0  0  0  0  0  0  0  0  0
    3.0223   -0.8233    0.0000 C   0  0  0  0  0  0  0  0  0  0  0  0
    3.7305    0.4990    0.0000 C   0  0  0  0  0  0  0  0  0  0  0  0
    5.2297    0.5468    0.0000 N   0  0  0  0  0  0  0  0  0  0  0  0
    5.9379    1.8691    0.0000 O   0  0  0  0  0  0  0  0  0  0  0  0
    6.0208   -0.7276    0.0000 O   0  0  0  0  0  0  0  0  0  0  0  0
    2.9394    1.7734    0.0000 C   0  0  0  0  0  0  0  0  0  0  0  0
    1.4402    1.7256    0.0000 C   0  0  0  0  0  0  0  0  0  0  0  0
    0.7320    0.4033    0.0000 C   0  0  0  0  0  0  0  0  0  0  0  0
   -4.4279    1.4713    0.0000 C   0  0  0  0  0  0  0  0  0  0  0  0
   -5.8390    0.9625    0.0000 R   0  0  0  0  0  1  0  0  0  0  0  0
   -4.1630    2.9477    0.0000 O   0  0  0  0  0  0  0  0  0  0  0  0
  1  2  1  0
  2  3  1  0
  2  4  1  0
  4  5  1  6
  5  6  1  0
  6  7  2  0
  7  8  1  0
  8  9  1  0
  8 10  1  0
 10 11  1  0
 11 12  2  0
 12 13  1  0
 13 14  2  0
 13 15  1  0
 12 16  1  0
 16 17  2  0
 17 18  1  0
  4 19  1  0
 19 20  1  0
 19 21  2  0
 18  6  1  0
 18 10  2  0
M  CHG  2  13   1  15  -1
M  ISO  4   1   1   3   3   9   4  20   2
M  END
>  <symbol>  (489) 
Trp_5NO2

>  <m_abbr>  (489) 
Trp_5NO2

>  <m_name>  (489) 
L-5-Nitrotryptophan

>  <m_type>  (489) 
aa

>  <m_subtype>  (489) 
modified

>  <m_Rgroups>  (489) 
[H],[OH],[H],[H]

>  <m_chem_types>  (489) 
1:backbone_n,2:backbone_c,3:backbone_n_mod,4:aromatic_nh

>  <m_activation_policy>  (489) 
canonical-sites-v1

$$$$

     RDKit          2D

 19 20  0  0  0  0  0  0  0  0999 V2000
   -4.2806   -1.4552    0.0000 R   0  0  0  0  0  1  0  0  0  0  0  0
   -2.8579   -0.9798    0.0000 N   0  0  0  0  0  0  0  0  0  0  0  0
   -1.7348   -1.9742    0.0000 R   0  0  0  0  0  1  0  0  0  0  0  0
   -2.5582    0.4900    0.0000 C   0  0  0  0  0  0  0  0  0  0  0  0
   -1.1356    0.9654    0.0000 C   0  0  0  0  0  0  0  0  0  0  0  0
   -0.0125   -0.0290    0.0000 C   0  0  0  0  0  0  0  0  0  0  0  0
   -0.1569   -1.5220    0.0000 C   0  0  0  0  0  0  0  0  0  0  0  0
    1.2185   -2.1207    0.0000 N   0  0  0  0  0  0  0  0  0  0  0  0
    1.5425   -3.5853    0.0000 R   0  0  0  0  0  1  0  0  0  0  0  0
    2.2128   -0.9977    0.0000 C   0  0  0  0  0  0  0  0  0  0  0  0
    3.7128   -0.9852    0.0000 C   0  0  0  0  0  0  0  0  0  0  0  0
    4.4519    0.3200    0.0000 C   0  0  0  0  0  0  0  0  0  0  0  0
    3.6912    1.6128    0.0000 C   0  0  0  0  0  0  0  0  0  0  0  0
    4.4303    2.9180    0.0000 Cl  0  0  0  0  0  0  0  0  0  0  0  0
    2.1912    1.6003    0.0000 C   0  0  0  0  0  0  0  0  0  0  0  0
    1.4521    0.2951    0.0000 C   0  0  0  0  0  0  0  0  0  0  0  0
   -3.6813    1.4844    0.0000 C   0  0  0  0  0  0  0  0  0  0  0  0
   -5.1039    1.0090    0.0000 R   0  0  0  0  0  1  0  0  0  0  0  0
   -3.3816    2.9541    0.0000 O   0  0  0  0  0  0  0  0  0  0  0  0
  1  2  1  0
  2  3  1  0
  2  4  1  0
  4  5  1  6
  5  6  1  0
  6  7  2  0
  7  8  1  0
  8  9  1  0
  8 10  1  0
 10 11  1  0
 11 12  2  0
 12 13  1  0
 13 14  1  0
 13 15  2  0
 15 16  1  0
  4 17  1  0
 17 18  1  0
 17 19  2  0
 16  6  1  0
 16 10  2  0
M  ISO  4   1   1   3   3   9   4  18   2
M  END
>  <symbol>  (490) 
Trp_6Cl

>  <m_abbr>  (490) 
Trp_6Cl

>  <m_name>  (490) 
L-6-Chlorotryptophan

>  <m_type>  (490) 
aa

>  <m_subtype>  (490) 
modified

>  <m_Rgroups>  (490) 
[H],[OH],[H],[H]

>  <m_chem_types>  (490) 
1:backbone_n,2:backbone_c,3:backbone_n_mod,4:aromatic_nh

>  <m_activation_policy>  (490) 
canonical-sites-v1

$$$$

     RDKit          2D

 19 20  0  0  0  0  0  0  0  0999 V2000
   -4.2806   -1.4552    0.0000 R   0  0  0  0  0  1  0  0  0  0  0  0
   -2.8579   -0.9798    0.0000 N   0  0  0  0  0  0  0  0  0  0  0  0
   -1.7348   -1.9742    0.0000 R   0  0  0  0  0  1  0  0  0  0  0  0
   -2.5582    0.4900    0.0000 C   0  0  0  0  0  0  0  0  0  0  0  0
   -1.1356    0.9654    0.0000 C   0  0  0  0  0  0  0  0  0  0  0  0
   -0.0125   -0.0290    0.0000 C   0  0  0  0  0  0  0  0  0  0  0  0
   -0.1569   -1.5220    0.0000 C   0  0  0  0  0  0  0  0  0  0  0  0
    1.2185   -2.1207    0.0000 N   0  0  0  0  0  0  0  0  0  0  0  0
    1.5425   -3.5853    0.0000 R   0  0  0  0  0  1  0  0  0  0  0  0
    2.2128   -0.9977    0.0000 C   0  0  0  0  0  0  0  0  0  0  0  0
    3.7128   -0.9852    0.0000 C   0  0  0  0  0  0  0  0  0  0  0  0
    4.4519    0.3200    0.0000 C   0  0  0  0  0  0  0  0  0  0  0  0
    3.6912    1.6128    0.0000 C   0  0  0  0  0  0  0  0  0  0  0  0
    4.4303    2.9180    0.0000 Br  0  0  0  0  0  0  0  0  0  0  0  0
    2.1912    1.6003    0.0000 C   0  0  0  0  0  0  0  0  0  0  0  0
    1.4521    0.2951    0.0000 C   0  0  0  0  0  0  0  0  0  0  0  0
   -3.6813    1.4844    0.0000 C   0  0  0  0  0  0  0  0  0  0  0  0
   -5.1039    1.0090    0.0000 R   0  0  0  0  0  1  0  0  0  0  0  0
   -3.3816    2.9541    0.0000 O   0  0  0  0  0  0  0  0  0  0  0  0
  1  2  1  0
  2  3  1  0
  2  4  1  0
  4  5  1  6
  5  6  1  0
  6  7  2  0
  7  8  1  0
  8  9  1  0
  8 10  1  0
 10 11  1  0
 11 12  2  0
 12 13  1  0
 13 14  1  0
 13 15  2  0
 15 16  1  0
  4 17  1  0
 17 18  1  0
 17 19  2  0
 16  6  1  0
 16 10  2  0
M  ISO  4   1   1   3   3   9   4  18   2
M  END
>  <symbol>  (491) 
Trp_6Br

>  <m_abbr>  (491) 
Trp_6Br

>  <m_name>  (491) 
L-6-Bromotryptophan

>  <m_type>  (491) 
aa

>  <m_subtype>  (491) 
modified

>  <m_Rgroups>  (491) 
[H],[OH],[H],[H]

>  <m_chem_types>  (491) 
1:backbone_n,2:backbone_c,3:backbone_n_mod,4:aromatic_nh

>  <m_activation_policy>  (491) 
canonical-sites-v1

$$$$

     RDKit          2D

 19 20  0  0  0  0  0  0  0  0999 V2000
   -4.2806   -1.4552    0.0000 R   0  0  0  0  0  1  0  0  0  0  0  0
   -2.8579   -0.9798    0.0000 N   0  0  0  0  0  0  0  0  0  0  0  0
   -1.7348   -1.9742    0.0000 R   0  0  0  0  0  1  0  0  0  0  0  0
   -2.5582    0.4900    0.0000 C   0  0  0  0  0  0  0  0  0  0  0  0
   -1.1356    0.9654    0.0000 C   0  0  0  0  0  0  0  0  0  0  0  0
   -0.0125   -0.0290    0.0000 C   0  0  0  0  0  0  0  0  0  0  0  0
   -0.1569   -1.5220    0.0000 C   0  0  0  0  0  0  0  0  0  0  0  0
    1.2185   -2.1207    0.0000 N   0  0  0  0  0  0  0  0  0  0  0  0
    1.5425   -3.5853    0.0000 R   0  0  0  0  0  1  0  0  0  0  0  0
    2.2128   -0.9977    0.0000 C   0  0  0  0  0  0  0  0  0  0  0  0
    3.7128   -0.9852    0.0000 C   0  0  0  0  0  0  0  0  0  0  0  0
    4.4519    0.3200    0.0000 C   0  0  0  0  0  0  0  0  0  0  0  0
    3.6912    1.6128    0.0000 C   0  0  0  0  0  0  0  0  0  0  0  0
    4.4303    2.9180    0.0000 C   0  0  0  0  0  0  0  0  0  0  0  0
    2.1912    1.6003    0.0000 C   0  0  0  0  0  0  0  0  0  0  0  0
    1.4521    0.2951    0.0000 C   0  0  0  0  0  0  0  0  0  0  0  0
   -3.6813    1.4844    0.0000 C   0  0  0  0  0  0  0  0  0  0  0  0
   -5.1039    1.0090    0.0000 R   0  0  0  0  0  1  0  0  0  0  0  0
   -3.3816    2.9541    0.0000 O   0  0  0  0  0  0  0  0  0  0  0  0
  1  2  1  0
  2  3  1  0
  2  4  1  0
  4  5  1  6
  5  6  1  0
  6  7  2  0
  7  8  1  0
  8  9  1  0
  8 10  1  0
 10 11  1  0
 11 12  2  0
 12 13  1  0
 13 14  1  0
 13 15  2  0
 15 16  1  0
  4 17  1  0
 17 18  1  0
 17 19  2  0
 16  6  1  0
 16 10  2  0
M  ISO  4   1   1   3   3   9   4  18   2
M  END
>  <symbol>  (492) 
Trp_6Me

>  <m_abbr>  (492) 
Trp_6Me

>  <m_name>  (492) 
L-6-Methyltryptophan

>  <m_type>  (492) 
aa

>  <m_subtype>  (492) 
modified

>  <m_Rgroups>  (492) 
[H],[OH],[H],[H]

>  <m_chem_types>  (492) 
1:backbone_n,2:backbone_c,3:backbone_n_mod,4:aromatic_nh

>  <m_activation_policy>  (492) 
canonical-sites-v1

$$$$

     RDKit          2D

 19 20  0  0  0  0  0  0  0  0999 V2000
   -4.2806   -1.4552    0.0000 R   0  0  0  0  0  1  0  0  0  0  0  0
   -2.8579   -0.9798    0.0000 N   0  0  0  0  0  0  0  0  0  0  0  0
   -1.7348   -1.9742    0.0000 R   0  0  0  0  0  1  0  0  0  0  0  0
   -2.5582    0.4900    0.0000 C   0  0  0  0  0  0  0  0  0  0  0  0
   -1.1356    0.9654    0.0000 C   0  0  0  0  0  0  0  0  0  0  0  0
   -0.0125   -0.0290    0.0000 C   0  0  0  0  0  0  0  0  0  0  0  0
   -0.1569   -1.5220    0.0000 C   0  0  0  0  0  0  0  0  0  0  0  0
    1.2185   -2.1207    0.0000 N   0  0  0  0  0  0  0  0  0  0  0  0
    1.5425   -3.5853    0.0000 R   0  0  0  0  0  1  0  0  0  0  0  0
    2.2128   -0.9977    0.0000 C   0  0  0  0  0  0  0  0  0  0  0  0
    3.7128   -0.9852    0.0000 C   0  0  0  0  0  0  0  0  0  0  0  0
    4.4519    0.3200    0.0000 C   0  0  0  0  0  0  0  0  0  0  0  0
    3.6912    1.6128    0.0000 C   0  0  0  0  0  0  0  0  0  0  0  0
    4.4303    2.9180    0.0000 F   0  0  0  0  0  0  0  0  0  0  0  0
    2.1912    1.6003    0.0000 C   0  0  0  0  0  0  0  0  0  0  0  0
    1.4521    0.2951    0.0000 C   0  0  0  0  0  0  0  0  0  0  0  0
   -3.6813    1.4844    0.0000 C   0  0  0  0  0  0  0  0  0  0  0  0
   -5.1039    1.0090    0.0000 R   0  0  0  0  0  1  0  0  0  0  0  0
   -3.3816    2.9541    0.0000 O   0  0  0  0  0  0  0  0  0  0  0  0
  1  2  1  0
  2  3  1  0
  2  4  1  0
  4  5  1  6
  5  6  1  0
  6  7  2  0
  7  8  1  0
  8  9  1  0
  8 10  1  0
 10 11  1  0
 11 12  2  0
 12 13  1  0
 13 14  1  0
 13 15  2  0
 15 16  1  0
  4 17  1  0
 17 18  1  0
 17 19  2  0
 16  6  1  0
 16 10  2  0
M  ISO  4   1   1   3   3   9   4  18   2
M  END
>  <symbol>  (493) 
Trp_6F2

>  <m_abbr>  (493) 
Trp_6F2

>  <m_name>  (493) 
L-6-Fluorotryptophan (alt regio)

>  <m_type>  (493) 
aa

>  <m_subtype>  (493) 
modified

>  <m_Rgroups>  (493) 
[H],[OH],[H],[H]

>  <m_chem_types>  (493) 
1:backbone_n,2:backbone_c,3:backbone_n_mod,4:aromatic_nh

>  <m_activation_policy>  (493) 
canonical-sites-v1

$$$$

     RDKit          2D

 19 20  0  0  0  0  0  0  0  0999 V2000
   -4.2475   -1.6475    0.0000 R   0  0  0  0  0  1  0  0  0  0  0  0
   -2.8651   -1.0651    0.0000 N   0  0  0  0  0  0  0  0  0  0  0  0
   -1.6696   -1.9710    0.0000 R   0  0  0  0  0  1  0  0  0  0  0  0
   -2.6783    0.4232    0.0000 C   0  0  0  0  0  0  0  0  0  0  0  0
   -1.2960    1.0056    0.0000 C   0  0  0  0  0  0  0  0  0  0  0  0
   -0.1005    0.0997    0.0000 C   0  0  0  0  0  0  0  0  0  0  0  0
   -0.1307   -1.4000    0.0000 C   0  0  0  0  0  0  0  0  0  0  0  0
    1.2863   -1.8921    0.0000 N   0  0  0  0  0  0  0  0  0  0  0  0
    1.7210   -3.3278    0.0000 R   0  0  0  0  0  1  0  0  0  0  0  0
    2.1922   -0.6966    0.0000 C   0  0  0  0  0  0  0  0  0  0  0  0
    3.6868   -0.5699    0.0000 C   0  0  0  0  0  0  0  0  0  0  0  0
    4.3244    0.7879    0.0000 C   0  0  0  0  0  0  0  0  0  0  0  0
    5.8190    0.9146    0.0000 Cl  0  0  0  0  0  0  0  0  0  0  0  0
    3.4673    2.0189    0.0000 C   0  0  0  0  0  0  0  0  0  0  0  0
    1.9727    1.8922    0.0000 C   0  0  0  0  0  0  0  0  0  0  0  0
    1.3351    0.5344    0.0000 C   0  0  0  0  0  0  0  0  0  0  0  0
   -3.8739    1.3292    0.0000 C   0  0  0  0  0  0  0  0  0  0  0  0
   -5.2562    0.7468    0.0000 R   0  0  0  0  0  1  0  0  0  0  0  0
   -3.6871    2.8175    0.0000 O   0  0  0  0  0  0  0  0  0  0  0  0
  1  2  1  0
  2  3  1  0
  2  4  1  0
  4  5  1  6
  5  6  1  0
  6  7  2  0
  7  8  1  0
  8  9  1  0
  8 10  1  0
 10 11  1  0
 11 12  2  0
 12 13  1  0
 12 14  1  0
 14 15  2  0
 15 16  1  0
  4 17  1  0
 17 18  1  0
 17 19  2  0
 16  6  1  0
 16 10  2  0
M  ISO  4   1   1   3   3   9   4  18   2
M  END
>  <symbol>  (494) 
Trp_5Cl

>  <m_abbr>  (494) 
Trp_5Cl

>  <m_name>  (494) 
L-5-Chlorotryptophan

>  <m_type>  (494) 
aa

>  <m_subtype>  (494) 
modified

>  <m_Rgroups>  (494) 
[H],[OH],[H],[H]

>  <m_chem_types>  (494) 
1:backbone_n,2:backbone_c,3:backbone_n_mod,4:aromatic_nh

>  <m_activation_policy>  (494) 
canonical-sites-v1

$$$$

     RDKit          2D

 19 20  0  0  0  0  0  0  0  0999 V2000
   -4.2475   -1.6475    0.0000 R   0  0  0  0  0  1  0  0  0  0  0  0
   -2.8651   -1.0651    0.0000 N   0  0  0  0  0  0  0  0  0  0  0  0
   -1.6696   -1.9710    0.0000 R   0  0  0  0  0  1  0  0  0  0  0  0
   -2.6783    0.4232    0.0000 C   0  0  0  0  0  0  0  0  0  0  0  0
   -1.2960    1.0056    0.0000 C   0  0  0  0  0  0  0  0  0  0  0  0
   -0.1005    0.0997    0.0000 C   0  0  0  0  0  0  0  0  0  0  0  0
   -0.1307   -1.4000    0.0000 C   0  0  0  0  0  0  0  0  0  0  0  0
    1.2863   -1.8921    0.0000 N   0  0  0  0  0  0  0  0  0  0  0  0
    1.7210   -3.3278    0.0000 R   0  0  0  0  0  1  0  0  0  0  0  0
    2.1922   -0.6966    0.0000 C   0  0  0  0  0  0  0  0  0  0  0  0
    3.6868   -0.5699    0.0000 C   0  0  0  0  0  0  0  0  0  0  0  0
    4.3244    0.7879    0.0000 C   0  0  0  0  0  0  0  0  0  0  0  0
    5.8190    0.9146    0.0000 I   0  0  0  0  0  0  0  0  0  0  0  0
    3.4673    2.0189    0.0000 C   0  0  0  0  0  0  0  0  0  0  0  0
    1.9727    1.8922    0.0000 C   0  0  0  0  0  0  0  0  0  0  0  0
    1.3351    0.5344    0.0000 C   0  0  0  0  0  0  0  0  0  0  0  0
   -3.8739    1.3292    0.0000 C   0  0  0  0  0  0  0  0  0  0  0  0
   -5.2562    0.7468    0.0000 R   0  0  0  0  0  1  0  0  0  0  0  0
   -3.6871    2.8175    0.0000 O   0  0  0  0  0  0  0  0  0  0  0  0
  1  2  1  0
  2  3  1  0
  2  4  1  0
  4  5  1  6
  5  6  1  0
  6  7  2  0
  7  8  1  0
  8  9  1  0
  8 10  1  0
 10 11  1  0
 11 12  2  0
 12 13  1  0
 12 14  1  0
 14 15  2  0
 15 16  1  0
  4 17  1  0
 17 18  1  0
 17 19  2  0
 16  6  1  0
 16 10  2  0
M  ISO  4   1   1   3   3   9   4  18   2
M  END
>  <symbol>  (495) 
Trp_5I

>  <m_abbr>  (495) 
Trp_5I

>  <m_name>  (495) 
L-5-Iodotryptophan

>  <m_type>  (495) 
aa

>  <m_subtype>  (495) 
modified

>  <m_Rgroups>  (495) 
[H],[OH],[H],[H]

>  <m_chem_types>  (495) 
1:backbone_n,2:backbone_c,3:backbone_n_mod,4:aromatic_nh

>  <m_activation_policy>  (495) 
canonical-sites-v1

$$$$

     RDKit          2D

 21 22  0  0  0  0  0  0  0  0999 V2000
   -4.3319   -2.1476    0.0000 R   0  0  0  0  0  1  0  0  0  0  0  0
   -3.0849   -1.3139    0.0000 N   0  0  0  0  0  0  0  0  0  0  0  0
   -1.7394   -1.9769    0.0000 R   0  0  0  0  0  1  0  0  0  0  0  0
   -3.1835    0.1829    0.0000 C   0  0  0  0  0  0  0  0  0  0  0  0
   -1.9365    1.0166    0.0000 C   0  0  0  0  0  0  0  0  0  0  0  0
   -0.5910    0.3536    0.0000 C   0  0  0  0  0  0  0  0  0  0  0  0
   -0.3366   -1.1247    0.0000 C   0  0  0  0  0  0  0  0  0  0  0  0
    1.1480   -1.3395    0.0000 N   0  0  0  0  0  0  0  0  0  0  0  0
    1.8468   -2.6667    0.0000 R   0  0  0  0  0  1  0  0  0  0  0  0
    1.8110    0.0060    0.0000 C   0  0  0  0  0  0  0  0  0  0  0  0
    3.2546    0.4136    0.0000 C   0  0  0  0  0  0  0  0  0  0  0  0
    4.3293   -0.6327    0.0000 N   0  0  0  0  0  0  0  0  0  0  0  0
    3.9605   -2.0867    0.0000 O   0  0  0  0  0  0  0  0  0  0  0  0
    5.7729   -0.2251    0.0000 O   0  0  0  0  0  0  0  0  0  0  0  0
    3.6234    1.8676    0.0000 C   0  0  0  0  0  0  0  0  0  0  0  0
    2.5486    2.9139    0.0000 C   0  0  0  0  0  0  0  0  0  0  0  0
    1.1050    2.5064    0.0000 C   0  0  0  0  0  0  0  0  0  0  0  0
    0.7362    1.0524    0.0000 C   0  0  0  0  0  0  0  0  0  0  0  0
   -4.5290    0.8459    0.0000 C   0  0  0  0  0  0  0  0  0  0  0  0
   -5.7760    0.0122    0.0000 R   0  0  0  0  0  1  0  0  0  0  0  0
   -4.6275    2.3427    0.0000 O   0  0  0  0  0  0  0  0  0  0  0  0
  1  2  1  0
  2  3  1  0
  2  4  1  0
  4  5  1  6
  5  6  1  0
  6  7  2  0
  7  8  1  0
  8  9  1  0
  8 10  1  0
 10 11  2  0
 11 12  1  0
 12 13  2  0
 12 14  1  0
 11 15  1  0
 15 16  2  0
 16 17  1  0
 17 18  2  0
  4 19  1  0
 19 20  1  0
 19 21  2  0
 18  6  1  0
 18 10  1  0
M  CHG  2  12   1  14  -1
M  ISO  4   1   1   3   3   9   4  20   2
M  END
>  <symbol>  (496) 
Trp_4NO2

>  <m_abbr>  (496) 
Trp_4NO2

>  <m_name>  (496) 
L-4-Nitrotryptophan

>  <m_type>  (496) 
aa

>  <m_subtype>  (496) 
modified

>  <m_Rgroups>  (496) 
[H],[OH],[H],[H]

>  <m_chem_types>  (496) 
1:backbone_n,2:backbone_c,3:backbone_n_mod,4:aromatic_nh

>  <m_activation_policy>  (496) 
canonical-sites-v1

$$$$

     RDKit          2D

 19 20  0  0  0  0  0  0  0  0999 V2000
   -3.9766   -1.8157    0.0000 R   0  0  0  0  0  1  0  0  0  0  0  0
   -2.6020   -1.2154    0.0000 N   0  0  0  0  0  0  0  0  0  0  0  0
   -1.3947   -2.1056    0.0000 R   0  0  0  0  0  1  0  0  0  0  0  0
   -2.4346    0.2753    0.0000 C   0  0  0  0  0  0  0  0  0  0  0  0
   -1.0600    0.8756    0.0000 C   0  0  0  0  0  0  0  0  0  0  0  0
    0.1473   -0.0146    0.0000 C   0  0  0  0  0  0  0  0  0  0  0  0
    0.1366   -1.5146    0.0000 C   0  0  0  0  0  0  0  0  0  0  0  0
    1.5599   -1.9882    0.0000 N   0  0  0  0  0  0  0  0  0  0  0  0
    2.0133   -3.4180    0.0000 R   0  0  0  0  0  1  0  0  0  0  0  0
    2.4501   -0.7810    0.0000 C   0  0  0  0  0  0  0  0  0  0  0  0
    3.9430   -0.6348    0.0000 C   0  0  0  0  0  0  0  0  0  0  0  0
    4.5628    0.7312    0.0000 C   0  0  0  0  0  0  0  0  0  0  0  0
    3.6898    1.9509    0.0000 C   0  0  0  0  0  0  0  0  0  0  0  0
    2.1969    1.8047    0.0000 C   0  0  0  0  0  0  0  0  0  0  0  0
    1.3238    3.0245    0.0000 F   0  0  0  0  0  0  0  0  0  0  0  0
    1.5771    0.4388    0.0000 C   0  0  0  0  0  0  0  0  0  0  0  0
   -3.6418    1.1655    0.0000 C   0  0  0  0  0  0  0  0  0  0  0  0
   -5.0164    0.5652    0.0000 R   0  0  0  0  0  1  0  0  0  0  0  0
   -3.4745    2.6562    0.0000 O   0  0  0  0  0  0  0  0  0  0  0  0
  1  2  1  0
  2  3  1  0
  2  4  1  0
  4  5  1  6
  5  6  1  0
  6  7  2  0
  7  8  1  0
  8  9  1  0
  8 10  1  0
 10 11  2  0
 11 12  1  0
 12 13  2  0
 13 14  1  0
 14 15  1  0
 14 16  2  0
  4 17  1  0
 17 18  1  0
 17 19  2  0
 16  6  1  0
 16 10  1  0
M  ISO  4   1   1   3   3   9   4  18   2
M  END
>  <symbol>  (497) 
Trp_7F

>  <m_abbr>  (497) 
Trp_7F

>  <m_name>  (497) 
L-7-Fluorotryptophan

>  <m_type>  (497) 
aa

>  <m_subtype>  (497) 
modified

>  <m_Rgroups>  (497) 
[H],[OH],[H],[H]

>  <m_chem_types>  (497) 
1:backbone_n,2:backbone_c,3:backbone_n_mod,4:aromatic_nh

>  <m_activation_policy>  (497) 
canonical-sites-v1

$$$$

     RDKit          2D

 19 19  0  0  0  0  0  0  0  0999 V2000
   -4.0277   -1.8231    0.0000 R   0  0  0  0  0  1  0  0  0  0  0  0
   -2.6611   -1.2045    0.0000 N   0  0  0  0  0  0  0  0  0  0  0  0
   -1.4422   -2.0787    0.0000 R   0  0  0  0  0  1  0  0  0  0  0  0
   -2.5135    0.2882    0.0000 C   0  0  0  0  0  0  0  0  0  0  0  0
   -1.1470    0.9067    0.0000 C   0  0  0  0  0  0  0  0  0  0  0  0
    0.0719    0.0326    0.0000 C   0  0  0  0  0  0  0  0  0  0  0  0
   -0.0757   -1.4602    0.0000 O   0  0  0  0  0  0  0  0  0  0  0  0
    1.4385    0.6511    0.0000 C   0  0  0  0  0  0  0  0  0  0  0  0
    1.5860    2.1438    0.0000 C   0  0  0  0  0  0  0  0  0  0  0  0
    2.9526    2.7624    0.0000 C   0  0  0  0  0  0  0  0  0  0  0  0
    4.1715    1.8882    0.0000 C   0  0  0  0  0  0  0  0  0  0  0  0
    4.0239    0.3955    0.0000 C   0  0  0  0  0  0  0  0  0  0  0  0
    2.6574   -0.2231    0.0000 C   0  0  0  0  0  0  0  0  0  0  0  0
    2.5098   -1.7158    0.0000 N   0  0  0  0  0  0  0  0  0  0  0  0
    3.7287   -2.5900    0.0000 R   0  0  0  0  0  1  0  0  0  0  0  0
    1.1433   -2.3343    0.0000 R   0  0  0  0  0  1  0  0  0  0  0  0
   -3.7325    1.1624    0.0000 C   0  0  0  0  0  0  0  0  0  0  0  0
   -5.0990    0.5438    0.0000 R   0  0  0  0  0  1  0  0  0  0  0  0
   -3.5849    2.6551    0.0000 O   0  0  0  0  0  0  0  0  0  0  0  0
  1  2  1  0
  2  3  1  0
  2  4  1  0
  4  5  1  6
  5  6  1  0
  6  7  2  0
  6  8  1  0
  8  9  2  0
  9 10  1  0
 10 11  2  0
 11 12  1  0
 12 13  2  0
 13 14  1  0
 14 15  1  0
 14 16  1  0
  4 17  1  0
 17 18  1  0
 17 19  2  0
 13  8  1  0
M  ISO  5   1   1   3   3  15   4  16   5  18   2
M  END
>  <symbol>  (498) 
Kyn

>  <m_abbr>  (498) 
Kyn

>  <m_name>  (498) 
L-Kynurenine

>  <m_type>  (498) 
aa

>  <m_subtype>  (498) 
modified

>  <m_Rgroups>  (498) 
[H],[OH],[H],[H],[H]

>  <m_chem_types>  (498) 
1:backbone_n,2:backbone_c,3:backbone_n_mod,4:amine_primary,5:amine_primary

>  <m_activation_policy>  (498) 
canonical-sites-v1

$$$$

     RDKit          2D

 15 14  0  0  0  0  0  0  0  0999 V2000
   -5.1929   -0.2083    0.0000 R   0  0  0  0  0  1  0  0  0  0  0  0
   -3.8786   -0.9310    0.0000 N   0  0  0  0  0  0  0  0  0  0  0  0
   -3.8473   -2.4307    0.0000 R   0  0  0  0  0  1  0  0  0  0  0  0
   -2.5954   -0.1541    0.0000 C   0  0  0  0  0  0  0  0  0  0  0  0
   -1.2810   -0.8769    0.0000 C   0  0  0  0  0  0  0  0  0  0  0  0
    0.0021   -0.1000    0.0000 C   0  0  0  0  0  0  0  0  0  0  0  0
    1.3165   -0.8227    0.0000 C   0  0  0  0  0  0  0  0  0  0  0  0
    2.5996   -0.0458    0.0000 C   0  0  0  0  0  0  0  0  0  0  0  0
    3.9140   -0.7686    0.0000 C   0  0  0  0  0  0  0  0  0  0  0  0
    5.1971    0.0083    0.0000 N   0  0  0  0  0  0  0  0  0  0  0  0
    6.5115   -0.7145    0.0000 R   0  0  0  0  0  1  0  0  0  0  0  0
    5.1659    1.5080    0.0000 R   0  0  0  0  0  1  0  0  0  0  0  0
   -2.6267    1.3456    0.0000 C   0  0  0  0  0  0  0  0  0  0  0  0
   -1.3436    2.1225    0.0000 R   0  0  0  0  0  1  0  0  0  0  0  0
   -3.9411    2.0683    0.0000 O   0  0  0  0  0  0  0  0  0  0  0  0
  1  2  1  0
  2  3  1  0
  2  4  1  0
  4  5  1  6
  5  6  1  0
  6  7  1  0
  7  8  1  0
  8  9  1  0
  9 10  1  0
 10 11  1  0
 10 12  1  0
  4 13  1  0
 13 14  1  0
 13 15  2  0
M  ISO  5   1   1   3   3  11   4  12   5  14   2
M  END
>  <symbol>  (499) 
hLys

>  <m_abbr>  (499) 
hLys

>  <m_name>  (499) 
L-Homolysine

>  <m_type>  (499) 
aa

>  <m_subtype>  (499) 
modified

>  <m_Rgroups>  (499) 
[H],[OH],[H],[H],[H]

>  <m_chem_types>  (499) 
1:backbone_n,2:backbone_c,3:backbone_n_mod,4:amine_primary,5:amine_primary

>  <m_activation_policy>  (499) 
canonical-sites-v1

$$$$

     RDKit          2D

 12 12  0  0  0  0  0  0  0  0999 V2000
   -1.7982    2.2203    0.0000 R   0  0  0  0  0  1  0  0  0  0  0  0
   -0.6440    1.2622    0.0000 N   0  0  0  0  0  0  0  0  0  0  0  0
    0.7628    1.7827    0.0000 R   0  0  0  0  0  1  0  0  0  0  0  0
   -0.8967   -0.2163    0.0000 C   0  0  0  0  0  0  0  0  0  0  0  0
    0.2575   -1.1744    0.0000 C   0  0  0  0  0  0  0  0  0  0  0  0
    1.6643   -0.6539    0.0000 C   0  0  0  0  0  0  0  0  0  0  0  0
    2.2910    0.7089    0.0000 C   0  0  0  0  0  0  0  0  0  0  0  0
    3.6538    0.0821    0.0000 C   0  0  0  0  0  0  0  0  0  0  0  0
    3.0271   -1.2807    0.0000 C   0  0  0  0  0  0  0  0  0  0  0  0
   -2.3035   -0.7368    0.0000 C   0  0  0  0  0  0  0  0  0  0  0  0
   -3.4577    0.2213    0.0000 R   0  0  0  0  0  1  0  0  0  0  0  0
   -2.5562   -2.2154    0.0000 O   0  0  0  0  0  0  0  0  0  0  0  0
  1  2  1  0
  2  3  1  0
  2  4  1  0
  4  5  1  1
  5  6  1  0
  6  7  1  0
  7  8  1  0
  8  9  1  0
  4 10  1  0
 10 11  1  0
 10 12  2  0
  9  6  1  0
M  ISO  3   1   1   3   3  11   2
M  END
>  <symbol>  (500) 
cBuAla

>  <m_abbr>  (500) 
cBuAla

>  <m_name>  (500) 
L-Cyclobutylalanine

>  <m_type>  (500) 
aa

>  <m_subtype>  (500) 
modified

>  <m_Rgroups>  (500) 
[H],[OH],[H]

>  <m_chem_types>  (500) 
1:backbone_n,2:backbone_c,3:backbone_n_mod

>  <m_activation_policy>  (500) 
canonical-sites-v1

$$$$

     RDKit          2D

 13 13  0  0  0  0  0  0  0  0999 V2000
   -2.0806    2.2134    0.0000 R   0  0  0  0  0  1  0  0  0  0  0  0
   -0.9264    1.2554    0.0000 N   0  0  0  0  0  0  0  0  0  0  0  0
    0.4804    1.7760    0.0000 R   0  0  0  0  0  1  0  0  0  0  0  0
   -1.1789   -0.2232    0.0000 C   0  0  0  0  0  0  0  0  0  0  0  0
   -0.0246   -1.1812    0.0000 C   0  0  0  0  0  0  0  0  0  0  0  0
    1.3821   -0.6606    0.0000 C   0  0  0  0  0  0  0  0  0  0  0  0
    2.6302   -1.4926    0.0000 C   0  0  0  0  0  0  0  0  0  0  0  0
    3.8072   -0.5628    0.0000 C   0  0  0  0  0  0  0  0  0  0  0  0
    3.2866    0.8440    0.0000 C   0  0  0  0  0  0  0  0  0  0  0  0
    1.7878    0.7835    0.0000 C   0  0  0  0  0  0  0  0  0  0  0  0
   -2.5856   -0.7438    0.0000 C   0  0  0  0  0  0  0  0  0  0  0  0
   -3.7399    0.2142    0.0000 R   0  0  0  0  0  1  0  0  0  0  0  0
   -2.8382   -2.2224    0.0000 O   0  0  0  0  0  0  0  0  0  0  0  0
  1  2  1  0
  2  3  1  0
  2  4  1  0
  4  5  1  1
  5  6  1  0
  6  7  1  0
  7  8  1  0
  8  9  1  0
  9 10  1  0
  4 11  1  0
 11 12  1  0
 11 13  2  0
 10  6  1  0
M  ISO  3   1   1   3   3  12   2
M  END
>  <symbol>  (501) 
cPenAla

>  <m_abbr>  (501) 
cPenAla

>  <m_name>  (501) 
L-Cyclopentylalanine

>  <m_type>  (501) 
aa

>  <m_subtype>  (501) 
modified

>  <m_Rgroups>  (501) 
[H],[OH],[H]

>  <m_chem_types>  (501) 
1:backbone_n,2:backbone_c,3:backbone_n_mod

>  <m_activation_policy>  (501) 
canonical-sites-v1

$$$$

     RDKit          2D

 13 13  0  0  0  0  0  0  0  0999 V2000
   -2.0806    2.2134    0.0000 R   0  0  0  0  0  1  0  0  0  0  0  0
   -0.9264    1.2554    0.0000 N   0  0  0  0  0  0  0  0  0  0  0  0
    0.4804    1.7760    0.0000 R   0  0  0  0  0  1  0  0  0  0  0  0
   -1.1789   -0.2232    0.0000 C   0  0  0  0  0  0  0  0  0  0  0  0
   -0.0246   -1.1812    0.0000 C   0  0  0  0  0  0  0  0  0  0  0  0
    1.3821   -0.6606    0.0000 C   0  0  0  0  0  0  0  0  0  0  0  0
    2.6302   -1.4926    0.0000 C   0  0  0  0  0  0  0  0  0  0  0  0
    3.8072   -0.5628    0.0000 C   0  0  0  0  0  0  0  0  0  0  0  0
    3.2866    0.8440    0.0000 C   0  0  0  0  0  0  0  0  0  0  0  0
    1.7878    0.7835    0.0000 O   0  0  0  0  0  0  0  0  0  0  0  0
   -2.5856   -0.7438    0.0000 C   0  0  0  0  0  0  0  0  0  0  0  0
   -3.7399    0.2142    0.0000 R   0  0  0  0  0  1  0  0  0  0  0  0
   -2.8382   -2.2224    0.0000 O   0  0  0  0  0  0  0  0  0  0  0  0
  1  2  1  0
  2  3  1  0
  2  4  1  0
  4  5  1  1
  5  6  1  0
  6  7  2  0
  7  8  1  0
  8  9  2  0
  9 10  1  0
  4 11  1  0
 11 12  1  0
 11 13  2  0
 10  6  1  0
M  ISO  3   1   1   3   3  12   2
M  END
>  <symbol>  (502) 
Fur2Ala

>  <m_abbr>  (502) 
Fur2Ala

>  <m_name>  (502) 
L-2-Furyl-alanine

>  <m_type>  (502) 
aa

>  <m_subtype>  (502) 
modified

>  <m_Rgroups>  (502) 
[H],[OH],[H]

>  <m_chem_types>  (502) 
1:backbone_n,2:backbone_c,3:backbone_n_mod

>  <m_activation_policy>  (502) 
canonical-sites-v1

$$$$

     RDKit          2D

 13 13  0  0  0  0  0  0  0  0999 V2000
   -2.0806    2.2134    0.0000 R   0  0  0  0  0  1  0  0  0  0  0  0
   -0.9264    1.2554    0.0000 N   0  0  0  0  0  0  0  0  0  0  0  0
    0.4804    1.7760    0.0000 R   0  0  0  0  0  1  0  0  0  0  0  0
   -1.1789   -0.2232    0.0000 C   0  0  0  0  0  0  0  0  0  0  0  0
   -0.0246   -1.1812    0.0000 C   0  0  0  0  0  0  0  0  0  0  0  0
    1.3821   -0.6606    0.0000 C   0  0  0  0  0  0  0  0  0  0  0  0
    2.6302   -1.4926    0.0000 C   0  0  0  0  0  0  0  0  0  0  0  0
    3.8072   -0.5628    0.0000 C   0  0  0  0  0  0  0  0  0  0  0  0
    3.2866    0.8440    0.0000 O   0  0  0  0  0  0  0  0  0  0  0  0
    1.7878    0.7835    0.0000 C   0  0  0  0  0  0  0  0  0  0  0  0
   -2.5856   -0.7438    0.0000 C   0  0  0  0  0  0  0  0  0  0  0  0
   -3.7399    0.2142    0.0000 R   0  0  0  0  0  1  0  0  0  0  0  0
   -2.8382   -2.2224    0.0000 O   0  0  0  0  0  0  0  0  0  0  0  0
  1  2  1  0
  2  3  1  0
  2  4  1  0
  4  5  1  1
  5  6  1  0
  6  7  1  0
  7  8  2  0
  8  9  1  0
  9 10  1  0
  4 11  1  0
 11 12  1  0
 11 13  2  0
 10  6  2  0
M  ISO  3   1   1   3   3  12   2
M  END
>  <symbol>  (503) 
Fur3Ala

>  <m_abbr>  (503) 
Fur3Ala

>  <m_name>  (503) 
L-3-Furyl-alanine

>  <m_type>  (503) 
aa

>  <m_subtype>  (503) 
modified

>  <m_Rgroups>  (503) 
[H],[OH],[H]

>  <m_chem_types>  (503) 
1:backbone_n,2:backbone_c,3:backbone_n_mod

>  <m_activation_policy>  (503) 
canonical-sites-v1

$$$$

     RDKit          2D

 20 21  0  0  0  0  0  0  0  0999 V2000
   -4.0435    2.4376    0.0000 R   0  0  0  0  0  1  0  0  0  0  0  0
   -3.0535    1.3107    0.0000 N   0  0  0  0  0  0  0  0  0  0  0  0
   -1.5826    1.6046    0.0000 R   0  0  0  0  0  1  0  0  0  0  0  0
   -3.5344   -0.1101    0.0000 C   0  0  0  0  0  0  0  0  0  0  0  0
   -2.5445   -1.2370    0.0000 C   0  0  0  0  0  0  0  0  0  0  0  0
   -1.0735   -0.9431    0.0000 C   0  0  0  0  0  0  0  0  0  0  0  0
   -0.5926    0.4777    0.0000 C   0  0  0  0  0  0  0  0  0  0  0  0
    0.8783    0.7716    0.0000 C   0  0  0  0  0  0  0  0  0  0  0  0
    1.8683   -0.3553    0.0000 C   0  0  0  0  0  0  0  0  0  0  0  0
    3.3393   -0.0614    0.0000 C   0  0  0  0  0  0  0  0  0  0  0  0
    4.3292   -1.1883    0.0000 C   0  0  0  0  0  0  0  0  0  0  0  0
    5.8002   -0.8944    0.0000 C   0  0  0  0  0  0  0  0  0  0  0  0
    6.2811    0.5264    0.0000 C   0  0  0  0  0  0  0  0  0  0  0  0
    5.2911    1.6533    0.0000 C   0  0  0  0  0  0  0  0  0  0  0  0
    3.8202    1.3594    0.0000 C   0  0  0  0  0  0  0  0  0  0  0  0
    1.3874   -1.7761    0.0000 C   0  0  0  0  0  0  0  0  0  0  0  0
   -0.0835   -2.0700    0.0000 C   0  0  0  0  0  0  0  0  0  0  0  0
   -5.0054   -0.4040    0.0000 C   0  0  0  0  0  0  0  0  0  0  0  0
   -5.9954    0.7229    0.0000 R   0  0  0  0  0  1  0  0  0  0  0  0
   -5.4863   -1.8248    0.0000 O   0  0  0  0  0  0  0  0  0  0  0  0
  1  2  1  0
  2  3  1  0
  2  4  1  0
  4  5  1  1
  5  6  1  0
  6  7  1  0
  7  8  2  0
  8  9  1  0
  9 10  1  0
 10 11  2  0
 11 12  1  0
 12 13  2  0
 13 14  1  0
 14 15  2  0
  9 16  2  0
 16 17  1  0
  4 18  1  0
 18 19  1  0
 18 20  2  0
 17  6  2  0
 15 10  1  0
M  ISO  3   1   1   3   3  19   2
M  END
>  <symbol>  (504) 
BiPheAla

>  <m_abbr>  (504) 
BiPheAla

>  <m_name>  (504) 
L-4-Biphenylalanine

>  <m_type>  (504) 
aa

>  <m_subtype>  (504) 
modified

>  <m_Rgroups>  (504) 
[H],[OH],[H]

>  <m_chem_types>  (504) 
1:backbone_n,2:backbone_c,3:backbone_n_mod

>  <m_activation_policy>  (504) 
canonical-sites-v1

$$$$

     RDKit          2D

 11 11  0  0  0  0  0  0  0  0999 V2000
   -1.0596   -2.4555    0.0000 R   0  0  0  0  0  1  0  0  0  0  0  0
   -0.2576   -1.1879    0.0000 N   0  0  0  0  0  0  0  0  0  0  0  0
    1.2393   -1.0917    0.0000 C   0  0  0  0  0  0  0  0  0  0  0  0
    1.6103    0.3617    0.0000 C   0  0  0  0  0  0  0  0  0  0  0  0
    3.0042    0.9158    0.0000 O   0  0  0  0  0  0  0  0  0  0  0  0
    4.1811   -0.0143    0.0000 R   0  0  0  0  0  1  0  0  0  0  0  0
    0.3427    1.1637    0.0000 C   0  0  0  0  0  0  0  0  0  0  0  0
   -0.8117    0.2060    0.0000 C   0  0  0  0  0  0  0  0  0  0  0  0
   -2.2651    0.5770    0.0000 C   0  0  0  0  0  0  0  0  0  0  0  0
   -2.6705    2.0212    0.0000 R   0  0  0  0  0  1  0  0  0  0  0  0
   -3.3131   -0.4961    0.0000 O   0  0  0  0  0  0  0  0  0  0  0  0
  1  2  1  0
  2  3  1  0
  3  4  1  0
  4  5  1  6
  5  6  1  0
  4  7  1  0
  7  8  1  0
  8  9  1  6
  9 10  1  0
  9 11  2  0
  8  2  1  0
M  ISO  3   1   1   6   4  10   2
M  END
>  <symbol>  (505) 
Pro_3OH_t

>  <m_abbr>  (505) 
Pro_3OH_t

>  <m_name>  (505) 
trans-3-Hydroxyproline (2S,3R)

>  <m_type>  (505) 
aa

>  <m_subtype>  (505) 
modified

>  <m_Rgroups>  (505) 
[H],[OH],None,[H]

>  <m_chem_types>  (505) 
1:backbone_n,2:backbone_c,4:hydroxyl

>  <m_activation_policy>  (505) 
canonical-sites-v1

$$$$

     RDKit          2D

 11 11  0  0  0  0  0  0  0  0999 V2000
   -1.0596   -2.4555    0.0000 R   0  0  0  0  0  1  0  0  0  0  0  0
   -0.2576   -1.1879    0.0000 N   0  0  0  0  0  0  0  0  0  0  0  0
    1.2393   -1.0917    0.0000 C   0  0  0  0  0  0  0  0  0  0  0  0
    1.6103    0.3617    0.0000 C   0  0  0  0  0  0  0  0  0  0  0  0
    3.0042    0.9158    0.0000 O   0  0  0  0  0  0  0  0  0  0  0  0
    4.1811   -0.0143    0.0000 R   0  0  0  0  0  1  0  0  0  0  0  0
    0.3427    1.1637    0.0000 C   0  0  0  0  0  0  0  0  0  0  0  0
   -0.8117    0.2060    0.0000 C   0  0  0  0  0  0  0  0  0  0  0  0
   -2.2651    0.5770    0.0000 C   0  0  0  0  0  0  0  0  0  0  0  0
   -2.6705    2.0212    0.0000 R   0  0  0  0  0  1  0  0  0  0  0  0
   -3.3131   -0.4961    0.0000 O   0  0  0  0  0  0  0  0  0  0  0  0
  1  2  1  0
  2  3  1  0
  3  4  1  0
  4  5  1  1
  5  6  1  0
  4  7  1  0
  7  8  1  0
  8  9  1  6
  9 10  1  0
  9 11  2  0
  8  2  1  0
M  ISO  3   1   1   6   4  10   2
M  END
>  <symbol>  (506) 
Pro_3OH_c

>  <m_abbr>  (506) 
Pro_3OH_c

>  <m_name>  (506) 
cis-3-Hydroxyproline (2S,3S)

>  <m_type>  (506) 
aa

>  <m_subtype>  (506) 
modified

>  <m_Rgroups>  (506) 
[H],[OH],None,[H]

>  <m_chem_types>  (506) 
1:backbone_n,2:backbone_c,4:hydroxyl

>  <m_activation_policy>  (506) 
canonical-sites-v1

$$$$

     RDKit          2D

 10 10  0  0  0  0  0  0  0  0999 V2000
   -0.6492   -2.4549    0.0000 R   0  0  0  0  0  1  0  0  0  0  0  0
    0.1568   -1.1898    0.0000 N   0  0  0  0  0  0  0  0  0  0  0  0
    1.6540   -1.0983    0.0000 C   0  0  0  0  0  0  0  0  0  0  0  0
    2.0296    0.3539    0.0000 C   0  0  0  0  0  0  0  0  0  0  0  0
    3.4252    0.9037    0.0000 F   0  0  0  0  0  0  0  0  0  0  0  0
    0.7645    1.1599    0.0000 C   0  0  0  0  0  0  0  0  0  0  0  0
   -0.3930    0.2058    0.0000 C   0  0  0  0  0  0  0  0  0  0  0  0
   -1.8452    0.5814    0.0000 C   0  0  0  0  0  0  0  0  0  0  0  0
   -2.2460    2.0268    0.0000 R   0  0  0  0  0  1  0  0  0  0  0  0
   -2.8966   -0.4885    0.0000 O   0  0  0  0  0  0  0  0  0  0  0  0
  1  2  1  0
  2  3  1  0
  3  4  1  0
  4  5  1  0
  4  6  1  0
  6  7  1  0
  7  8  1  0
  8  9  1  0
  8 10  2  0
  7  2  1  0
M  ISO  2   1   1   9   2
M  END
>  <symbol>  (507) 
Pro_3F

>  <m_abbr>  (507) 
Pro_3F

>  <m_name>  (507) 
3-Fluoroproline

>  <m_type>  (507) 
aa

>  <m_subtype>  (507) 
modified

>  <m_Rgroups>  (507) 
[H],[OH]

>  <m_chem_types>  (507) 
1:backbone_n,2:backbone_c

>  <m_activation_policy>  (507) 
canonical-sites-v1

$$$$

     RDKit          2D

 30 31  0  0  0  0  0  0  0  0999 V2000
   -5.8773    3.8754    0.0000 R   0  0  0  0  0  1  0  0  0  0  0  0
   -5.3903    2.4566    0.0000 N   0  0  0  0  0  0  0  0  0  0  0  0
   -3.9182    2.1689    0.0000 R   0  0  0  0  0  1  0  0  0  0  0  0
   -6.3755    1.3255    0.0000 C   0  0  0  0  0  0  0  0  0  0  0  0
   -5.8886   -0.0932    0.0000 C   0  0  0  0  0  0  0  0  0  0  0  0
   -4.4164   -0.3809    0.0000 C   0  0  0  0  0  0  0  0  0  0  0  0
   -3.9295   -1.7997    0.0000 C   0  0  0  0  0  0  0  0  0  0  0  0
   -2.4573   -2.0874    0.0000 C   0  0  0  0  0  0  0  0  0  0  0  0
   -1.9704   -3.5061    0.0000 N   0  0  0  0  0  0  0  0  0  0  0  0
   -2.9556   -4.6372    0.0000 R   0  0  0  0  0  1  0  0  0  0  0  0
   -0.4982   -3.7938    0.0000 C   0  0  0  0  0  0  0  0  0  0  0  0
   -0.0113   -5.2126    0.0000 O   0  0  0  0  0  0  0  0  0  0  0  0
    0.4870   -2.6627    0.0000 C   0  0  0  0  0  0  0  0  0  0  0  0
    1.9591   -2.9504    0.0000 C   0  0  0  0  0  0  0  0  0  0  0  0
    2.9443   -1.8193    0.0000 C   0  0  0  0  0  0  0  0  0  0  0  0
    4.4165   -2.1070    0.0000 C   0  0  0  0  0  0  0  0  0  0  0  0
    5.4017   -0.9759    0.0000 C   0  0  0  0  0  0  0  0  0  0  0  0
    6.8959   -1.1081    0.0000 S   0  0  0  0  0  0  0  0  0  0  0  0
    7.4833    0.2721    0.0000 C   0  0  0  0  0  0  0  0  0  0  0  0
    6.3523    1.2573    0.0000 C   0  0  0  0  0  0  0  0  0  0  0  0
    5.0657    0.4860    0.0000 C   0  0  0  0  0  0  0  0  0  0  0  0
    3.9346    1.4712    0.0000 N   0  0  0  0  0  0  0  0  0  0  0  0
    2.4728    1.1352    0.0000 R   0  0  0  0  0  1  0  0  0  0  0  0
    4.5221    2.8514    0.0000 C   0  0  0  0  0  0  0  0  0  0  0  0
    3.7508    4.1379    0.0000 O   0  0  0  0  0  0  0  0  0  0  0  0
    6.0163    2.7192    0.0000 N   0  0  0  0  0  0  0  0  0  0  0  0
    7.0015    3.8503    0.0000 R   0  0  0  0  0  1  0  0  0  0  0  0
   -7.8477    1.6132    0.0000 C   0  0  0  0  0  0  0  0  0  0  0  0
   -8.3346    3.0320    0.0000 R   0  0  0  0  0  1  0  0  0  0  0  0
   -8.8329    0.4821    0.0000 O   0  0  0  0  0  0  0  0  0  0  0  0
  1  2  1  0
  2  3  1  0
  2  4  1  0
  4  5  1  1
  5  6  1  0
  6  7  1  0
  7  8  1  0
  8  9  1  0
  9 10  1  0
  9 11  1  0
 11 12  2  0
 11 13  1  0
 13 14  1  0
 14 15  1  0
 15 16  1  0
 16 17  1  0
 17 18  1  0
 18 19  1  0
 19 20  1  0
 20 21  1  0
 21 22  1  0
 22 23  1  0
 22 24  1  0
 24 25  2  0
 24 26  1  0
 26 27  1  0
  4 28  1  0
 28 29  1  0
 28 30  2  0
 21 17  1  0
 26 20  1  0
M  ISO  6   1   1   3   3  10   6  23   5  27   4  29   2
M  END
>  <symbol>  (508) 
BiotinLys

>  <m_abbr>  (508) 
BiotinLys

>  <m_name>  (508) 
N-epsilon-biotinyl-L-lysine

>  <m_type>  (508) 
aa

>  <m_subtype>  (508) 
modified

>  <m_Rgroups>  (508) 
[H],[OH],[H],[H],[H],[H]

>  <m_chem_types>  (508) 
1:backbone_n,2:backbone_c,3:backbone_n_mod,4:urea_nh,5:urea_nh,6:amide_nh

>  <m_activation_policy>  (508) 
canonical-sites-v1

$$$$

     RDKit          2D

 17 17  0  0  0  0  0  0  0  0999 V2000
   -3.5375    2.1462    0.0000 R   0  0  0  0  0  1  0  0  0  0  0  0
   -2.3664    1.2089    0.0000 N   0  0  0  0  0  0  0  0  0  0  0  0
   -0.9692    1.7544    0.0000 R   0  0  0  0  0  1  0  0  0  0  0  0
   -2.5926   -0.2740    0.0000 C   0  0  0  0  0  0  0  0  0  0  0  0
   -1.4215   -1.2113    0.0000 C   0  0  0  0  0  0  0  0  0  0  0  0
   -0.0242   -0.6657    0.0000 C   0  0  0  0  0  0  0  0  0  0  0  0
    0.2019    0.8171    0.0000 C   0  0  0  0  0  0  0  0  0  0  0  0
    1.5992    1.3627    0.0000 C   0  0  0  0  0  0  0  0  0  0  0  0
    2.7703    0.4254    0.0000 C   0  0  0  0  0  0  0  0  0  0  0  0
    4.1676    0.9709    0.0000 N   0  0  0  0  0  0  0  0  0  0  0  0
    5.3387    0.0336    0.0000 N   0  0  0  0  0  0  0  0  0  0  0  0
    6.5098   -0.9037    0.0000 N   0  0  0  0  0  0  0  0  0  0  0  0
    2.5441   -1.0575    0.0000 C   0  0  0  0  0  0  0  0  0  0  0  0
    1.1468   -1.6030    0.0000 C   0  0  0  0  0  0  0  0  0  0  0  0
   -3.9899   -0.8195    0.0000 C   0  0  0  0  0  0  0  0  0  0  0  0
   -5.1610    0.1178    0.0000 R   0  0  0  0  0  1  0  0  0  0  0  0
   -4.2161   -2.3023    0.0000 O   0  0  0  0  0  0  0  0  0  0  0  0
  1  2  1  0
  2  3  1  0
  2  4  1  0
  4  5  1  1
  5  6  1  0
  6  7  1  0
  7  8  2  0
  8  9  1  0
  9 10  1  0
 10 11  2  0
 11 12  2  0
  9 13  2  0
 13 14  1  0
  4 15  1  0
 15 16  1  0
 15 17  2  0
 14  6  2  0
M  CHG  2  11   1  12  -1
M  ISO  3   1   1   3   3  16   2
M  END
>  <symbol>  (509) 
Phe_4Az

>  <m_abbr>  (509) 
Phe_4Az

>  <m_name>  (509) 
L-para-Azidophenylalanine

>  <m_type>  (509) 
aa

>  <m_subtype>  (509) 
modified

>  <m_Rgroups>  (509) 
[H],[OH],[H]

>  <m_chem_types>  (509) 
1:backbone_n,2:backbone_c,3:backbone_n_mod

>  <m_activation_policy>  (509) 
canonical-sites-v1

$$$$

     RDKit          2D

 19 19  0  0  0  0  0  0  0  0999 V2000
   -4.1856    2.0919    0.0000 R   0  0  0  0  0  1  0  0  0  0  0  0
   -2.9691    1.2144    0.0000 N   0  0  0  0  0  0  0  0  0  0  0  0
   -1.6009    1.8292    0.0000 R   0  0  0  0  0  1  0  0  0  0  0  0
   -3.1208   -0.2779    0.0000 C   0  0  0  0  0  0  0  0  0  0  0  0
   -1.9042   -1.1554    0.0000 C   0  0  0  0  0  0  0  0  0  0  0  0
   -0.5360   -0.5407    0.0000 C   0  0  0  0  0  0  0  0  0  0  0  0
   -0.3843    0.9516    0.0000 C   0  0  0  0  0  0  0  0  0  0  0  0
    0.9839    1.5664    0.0000 C   0  0  0  0  0  0  0  0  0  0  0  0
    2.2004    0.6889    0.0000 C   0  0  0  0  0  0  0  0  0  0  0  0
    3.5687    1.3037    0.0000 O   0  0  0  0  0  0  0  0  0  0  0  0
    4.7852    0.4261    0.0000 C   0  0  0  0  0  0  0  0  0  0  0  0
    6.1534    1.0409    0.0000 R   0  0  0  0  0  1  0  0  0  0  0  0
    4.6335   -1.0662    0.0000 C   0  0  0  0  0  0  0  0  0  0  0  0
    4.4818   -2.5585    0.0000 C   0  0  0  0  0  0  0  0  0  0  0  0
    2.0487   -0.8034    0.0000 C   0  0  0  0  0  0  0  0  0  0  0  0
    0.6805   -1.4182    0.0000 C   0  0  0  0  0  0  0  0  0  0  0  0
   -4.4890   -0.8927    0.0000 C   0  0  0  0  0  0  0  0  0  0  0  0
   -5.7055   -0.0152    0.0000 R   0  0  0  0  0  1  0  0  0  0  0  0
   -4.6407   -2.3850    0.0000 O   0  0  0  0  0  0  0  0  0  0  0  0
  1  2  1  0
  2  3  1  0
  2  4  1  0
  4  5  1  1
  5  6  1  0
  6  7  1  0
  7  8  2  0
  8  9  1  0
  9 10  1  0
 10 11  1  0
 11 12  1  0
 11 13  1  0
 13 14  3  0
  9 15  2  0
 15 16  1  0
  4 17  1  0
 17 18  1  0
 17 19  2  0
 16  6  2  0
M  ISO  4   1   1   3   3  12   4  18   2
M  END
>  <symbol>  (510) 
Phe_4OPrg

>  <m_abbr>  (510) 
Phe_4OPrg

>  <m_name>  (510) 
L-para-O-Propargyl-Tyr

>  <m_type>  (510) 
aa

>  <m_subtype>  (510) 
modified

>  <m_Rgroups>  (510) 
[H],[OH],[H],[H]

>  <m_chem_types>  (510) 
1:backbone_n,2:backbone_c,3:backbone_n_mod,4:alkyne_c

>  <m_activation_policy>  (510) 
canonical-sites-v1

$$$$

     RDKit          2D

 18 18  0  0  0  0  0  0  0  0999 V2000
   -3.7898    2.0459    0.0000 R   0  0  0  0  0  1  0  0  0  0  0  0
   -2.5342    1.2253    0.0000 N   0  0  0  0  0  0  0  0  0  0  0  0
   -1.1957    1.9023    0.0000 R   0  0  0  0  0  1  0  0  0  0  0  0
   -2.6171   -0.2724    0.0000 C   0  0  0  0  0  0  0  0  0  0  0  0
   -1.3615   -1.0931    0.0000 C   0  0  0  0  0  0  0  0  0  0  0  0
   -0.0230   -0.4160    0.0000 C   0  0  0  0  0  0  0  0  0  0  0  0
    0.0599    1.0817    0.0000 C   0  0  0  0  0  0  0  0  0  0  0  0
    1.3984    1.7587    0.0000 C   0  0  0  0  0  0  0  0  0  0  0  0
    2.6540    0.9381    0.0000 C   0  0  0  0  0  0  0  0  0  0  0  0
    3.9925    1.6151    0.0000 O   0  0  0  0  0  0  0  0  0  0  0  0
    5.2481    0.7945    0.0000 R   0  0  0  0  0  1  0  0  0  0  0  0
    2.5711   -0.5596    0.0000 C   0  0  0  0  0  0  0  0  0  0  0  0
    3.8267   -1.3803    0.0000 O   0  0  0  0  0  0  0  0  0  0  0  0
    3.7438   -2.8780    0.0000 R   0  0  0  0  0  1  0  0  0  0  0  0
    1.2326   -1.2367    0.0000 C   0  0  0  0  0  0  0  0  0  0  0  0
   -3.9556   -0.9495    0.0000 C   0  0  0  0  0  0  0  0  0  0  0  0
   -5.2112   -0.1288    0.0000 R   0  0  0  0  0  1  0  0  0  0  0  0
   -4.0385   -2.4472    0.0000 O   0  0  0  0  0  0  0  0  0  0  0  0
  1  2  1  0
  2  3  1  0
  2  4  1  0
  4  5  1  1
  5  6  1  0
  6  7  1  0
  7  8  2  0
  8  9  1  0
  9 10  1  0
 10 11  1  0
  9 12  2  0
 12 13  1  0
 13 14  1  0
 12 15  1  0
  4 16  1  0
 16 17  1  0
 16 18  2  0
 15  6  2  0
M  ISO  5   1   1   3   3  11   4  14   5  17   2
M  END
>  <symbol>  (511) 
Dopa

>  <m_abbr>  (511) 
Dopa

>  <m_name>  (511) 
L-3,4-Dihydroxyphenylalanine (L-DOPA)

>  <m_type>  (511) 
aa

>  <m_subtype>  (511) 
modified

>  <m_Rgroups>  (511) 
[H],[OH],[H],[H],[H]

>  <m_chem_types>  (511) 
1:backbone_n,2:backbone_c,3:backbone_n_mod,4:aryl_phenol_o,5:aryl_phenol_o

>  <m_activation_policy>  (511) 
canonical-sites-v1

$$$$

     RDKit          2D

 16 16  0  0  0  0  0  0  0  0999 V2000
   -3.0227    2.2431    0.0000 R   0  0  0  0  0  1  0  0  0  0  0  0
   -1.8997    1.2486    0.0000 N   0  0  0  0  0  0  0  0  0  0  0  0
   -0.4770    1.7239    0.0000 R   0  0  0  0  0  1  0  0  0  0  0  0
   -2.1995   -0.2211    0.0000 C   0  0  0  0  0  0  0  0  0  0  0  0
   -1.0766   -1.2156    0.0000 C   0  0  0  0  0  0  0  0  0  0  0  0
    0.3462   -0.7404    0.0000 C   0  0  0  0  0  0  0  0  0  0  0  0
    0.6459    0.7294    0.0000 C   0  0  0  0  0  0  0  0  0  0  0  0
    2.0687    1.2046    0.0000 C   0  0  0  0  0  0  0  0  0  0  0  0
    3.1916    0.2101    0.0000 C   0  0  0  0  0  0  0  0  0  0  0  0
    4.6143    0.6854    0.0000 C   0  0  0  0  0  0  0  0  0  0  0  0
    5.7373   -0.3091    0.0000 F   0  0  0  0  0  0  0  0  0  0  0  0
    2.8918   -1.2596    0.0000 C   0  0  0  0  0  0  0  0  0  0  0  0
    1.4691   -1.7348    0.0000 C   0  0  0  0  0  0  0  0  0  0  0  0
   -3.6222   -0.6964    0.0000 C   0  0  0  0  0  0  0  0  0  0  0  0
   -4.7452    0.2981    0.0000 R   0  0  0  0  0  1  0  0  0  0  0  0
   -3.9220   -2.1661    0.0000 O   0  0  0  0  0  0  0  0  0  0  0  0
  1  2  1  0
  2  3  1  0
  2  4  1  0
  4  5  1  1
  5  6  1  0
  6  7  1  0
  7  8  2  0
  8  9  1  0
  9 10  1  0
 10 11  1  0
  9 12  2  0
 12 13  1  0
  4 14  1  0
 14 15  1  0
 14 16  2  0
 13  6  2  0
M  ISO  3   1   1   3   3  15   2
M  END
>  <symbol>  (512) 
Phe_4CF

>  <m_abbr>  (512) 
Phe_4CF

>  <m_name>  (512) 
L-4-(Fluoromethyl)phenylalanine

>  <m_type>  (512) 
aa

>  <m_subtype>  (512) 
modified

>  <m_Rgroups>  (512) 
[H],[OH],[H]

>  <m_chem_types>  (512) 
1:backbone_n,2:backbone_c,3:backbone_n_mod

>  <m_activation_policy>  (512) 
canonical-sites-v1

$$$$

     RDKit          2D

 12 11  0  0  0  0  0  0  0  0999 V2000
   -5.7935    0.8647    0.0000 R   0  0  0  0  0  1  0  0  0  0  0  0
   -4.5621    0.0083    0.0000 N   0  0  0  0  0  0  0  0  0  0  0  0
   -4.6881   -1.4864    0.0000 R   0  0  0  0  0  1  0  0  0  0  0  0
   -3.2046    0.6465    0.0000 C   0  0  0  0  0  0  0  0  0  0  0  0
   -1.9732   -0.2100    0.0000 C   0  0  0  0  0  0  0  0  0  0  0  0
   -0.6157    0.4282    0.0000 O   0  0  0  0  0  0  0  0  0  0  0  0
    0.6157   -0.4282    0.0000 C   0  0  0  0  0  0  0  0  0  0  0  0
    1.9732    0.2100    0.0000 C   0  0  0  0  0  0  0  0  0  0  0  0
    3.2046   -0.6465    0.0000 O   0  0  0  0  0  0  0  0  0  0  0  0
    4.5621   -0.0083    0.0000 C   0  0  0  0  0  0  0  0  0  0  0  0
    5.7935   -0.8647    0.0000 R   0  0  0  0  0  1  0  0  0  0  0  0
    4.6881    1.4864    0.0000 O   0  0  0  0  0  0  0  0  0  0  0  0
  1  2  1  0
  2  3  1  0
  2  4  1  0
  4  5  1  0
  5  6  1  0
  6  7  1  0
  7  8  1  0
  8  9  1  0
  9 10  1  0
 10 11  1  0
 10 12  2  0
M  ISO  3   1   1   3   3  11   2
M  END
>  <symbol>  (513) 
OEG2

>  <m_abbr>  (513) 
OEG2

>  <m_name>  (513) 
8-Amino-3,6-dioxaoctanoic acid (mini-PEG 2-unit)

>  <m_type>  (513) 
linker

>  <m_subtype>  (513) 
linker

>  <m_Rgroups>  (513) 
[H],[OH],[H]

>  <m_chem_types>  (513) 
1:backbone_n,2:backbone_c,3:backbone_n_mod

>  <m_activation_policy>  (513) 
canonical-sites-v1

$$$$

     RDKit          2D

 22 21  0  0  0  0  0  0  0  0999 V2000
  -12.3263    0.7070    0.0000 R   0  0  0  0  0  1  0  0  0  0  0  0
  -11.0479   -0.0777    0.0000 N   0  0  0  0  0  0  0  0  0  0  0  0
  -11.0883   -1.5772    0.0000 R   0  0  0  0  0  1  0  0  0  0  0  0
   -9.7292    0.6370    0.0000 C   0  0  0  0  0  0  0  0  0  0  0  0
   -8.4508   -0.1476    0.0000 C   0  0  0  0  0  0  0  0  0  0  0  0
   -7.1320    0.5671    0.0000 O   0  0  0  0  0  0  0  0  0  0  0  0
   -5.8536   -0.2176    0.0000 C   0  0  0  0  0  0  0  0  0  0  0  0
   -4.5349    0.4972    0.0000 C   0  0  0  0  0  0  0  0  0  0  0  0
   -3.2565   -0.2875    0.0000 O   0  0  0  0  0  0  0  0  0  0  0  0
   -1.9378    0.4273    0.0000 C   0  0  0  0  0  0  0  0  0  0  0  0
   -0.6594   -0.3574    0.0000 C   0  0  0  0  0  0  0  0  0  0  0  0
    0.6594    0.3574    0.0000 O   0  0  0  0  0  0  0  0  0  0  0  0
    1.9378   -0.4273    0.0000 C   0  0  0  0  0  0  0  0  0  0  0  0
    3.2565    0.2875    0.0000 C   0  0  0  0  0  0  0  0  0  0  0  0
    4.5349   -0.4972    0.0000 O   0  0  0  0  0  0  0  0  0  0  0  0
    5.8536    0.2176    0.0000 C   0  0  0  0  0  0  0  0  0  0  0  0
    7.1320   -0.5671    0.0000 C   0  0  0  0  0  0  0  0  0  0  0  0
    8.4508    0.1476    0.0000 O   0  0  0  0  0  0  0  0  0  0  0  0
    9.7292   -0.6370    0.0000 C   0  0  0  0  0  0  0  0  0  0  0  0
   11.0479    0.0777    0.0000 C   0  0  0  0  0  0  0  0  0  0  0  0
   12.3263   -0.7070    0.0000 R   0  0  0  0  0  1  0  0  0  0  0  0
   11.0883    1.5772    0.0000 O   0  0  0  0  0  0  0  0  0  0  0  0
  1  2  1  0
  2  3  1  0
  2  4  1  0
  4  5  1  0
  5  6  1  0
  6  7  1  0
  7  8  1  0
  8  9  1  0
  9 10  1  0
 10 11  1  0
 11 12  1  0
 12 13  1  0
 13 14  1  0
 14 15  1  0
 15 16  1  0
 16 17  1  0
 17 18  1  0
 18 19  1  0
 19 20  1  0
 20 21  1  0
 20 22  2  0
M  ISO  3   1   1   3   3  21   2
M  END
>  <symbol>  (514) 
OEG5

>  <m_abbr>  (514) 
OEG5

>  <m_name>  (514) 
17-Amino-3,6,9,12,15-pentaoxaheptadecanoic acid (mini-PEG 5-unit)

>  <m_type>  (514) 
linker

>  <m_subtype>  (514) 
linker

>  <m_Rgroups>  (514) 
[H],[OH],[H]

>  <m_chem_types>  (514) 
1:backbone_n,2:backbone_c,3:backbone_n_mod

>  <m_activation_policy>  (514) 
canonical-sites-v1

$$$$

     RDKit          2D

 15 15  0  0  0  0  0  0  0  0999 V2000
   -3.9151   -1.6710    0.0000 R   0  0  0  0  0  1  0  0  0  0  0  0
   -2.4580   -1.3145    0.0000 N   0  0  0  0  0  0  0  0  0  0  0  0
   -1.4208   -2.3982    0.0000 R   0  0  0  0  0  1  0  0  0  0  0  0
   -2.0382    0.1255    0.0000 C   0  0  0  0  0  0  0  0  0  0  0  0
   -0.5812    0.4819    0.0000 C   0  0  0  0  0  0  0  0  0  0  0  0
    0.4560   -0.6017    0.0000 C   0  0  0  0  0  0  0  0  0  0  0  0
    1.9131   -0.2453    0.0000 C   0  0  0  0  0  0  0  0  0  0  0  0
    2.3329    1.1948    0.0000 C   0  0  0  0  0  0  0  0  0  0  0  0
    3.7900    1.5512    0.0000 C   0  0  0  0  0  0  0  0  0  0  0  0
    4.8271    0.4676    0.0000 C   0  0  0  0  0  0  0  0  0  0  0  0
    4.4073   -0.9725    0.0000 C   0  0  0  0  0  0  0  0  0  0  0  0
    2.9503   -1.3289    0.0000 C   0  0  0  0  0  0  0  0  0  0  0  0
   -3.0754    1.2091    0.0000 C   0  0  0  0  0  0  0  0  0  0  0  0
   -4.5324    0.8527    0.0000 R   0  0  0  0  0  1  0  0  0  0  0  0
   -2.6556    2.6492    0.0000 O   0  0  0  0  0  0  0  0  0  0  0  0
  1  2  1  0
  2  3  1  0
  2  4  1  0
  4  5  1  1
  5  6  1  0
  6  7  1  0
  7  8  2  0
  8  9  1  0
  9 10  2  0
 10 11  1  0
 11 12  2  0
  4 13  1  0
 13 14  1  0
 13 15  2  0
 12  7  1  0
M  ISO  3   1   1   3   3  14   2
M  END
>  <symbol>  (515) 
D_hPhe2

>  <m_abbr>  (515) 
D_hPhe2

>  <m_name>  (515) 
D-Homophenylalanine (2-amino-4-phenylbutanoic acid)

>  <m_type>  (515) 
aa

>  <m_subtype>  (515) 
modified

>  <m_Rgroups>  (515) 
[H],[OH],[H]

>  <m_chem_types>  (515) 
1:backbone_n,2:backbone_c,3:backbone_n_mod

>  <m_activation_policy>  (515) 
canonical-sites-v1

$$$$

     RDKit          2D

 17 17  0  0  0  0  0  0  0  0999 V2000
   -3.0814    2.1711    0.0000 R   0  0  0  0  0  1  0  0  0  0  0  0
   -1.9491    1.1873    0.0000 N   0  0  0  0  0  0  0  0  0  0  0  0
   -0.5309    1.6760    0.0000 R   0  0  0  0  0  1  0  0  0  0  0  0
   -2.2349   -0.2852    0.0000 C   0  0  0  0  0  0  0  0  0  0  0  0
   -1.1026   -1.2690    0.0000 C   0  0  0  0  0  0  0  0  0  0  0  0
    0.3156   -0.7803    0.0000 C   0  0  0  0  0  0  0  0  0  0  0  0
    0.6014    0.6922    0.0000 C   0  0  0  0  0  0  0  0  0  0  0  0
    2.0196    1.1809    0.0000 C   0  0  0  0  0  0  0  0  0  0  0  0
    2.3054    2.6534    0.0000 F   0  0  0  0  0  0  0  0  0  0  0  0
    3.1519    0.1971    0.0000 C   0  0  0  0  0  0  0  0  0  0  0  0
    4.5700    0.6859    0.0000 F   0  0  0  0  0  0  0  0  0  0  0  0
    2.8660   -1.2754    0.0000 C   0  0  0  0  0  0  0  0  0  0  0  0
    3.9984   -2.2592    0.0000 F   0  0  0  0  0  0  0  0  0  0  0  0
    1.4479   -1.7641    0.0000 C   0  0  0  0  0  0  0  0  0  0  0  0
   -3.6530   -0.7740    0.0000 C   0  0  0  0  0  0  0  0  0  0  0  0
   -4.7854    0.2098    0.0000 R   0  0  0  0  0  1  0  0  0  0  0  0
   -3.9389   -2.2465    0.0000 O   0  0  0  0  0  0  0  0  0  0  0  0
  1  2  1  0
  2  3  1  0
  2  4  1  0
  4  5  1  1
  5  6  1  0
  6  7  2  0
  7  8  1  0
  8  9  1  0
  8 10  2  0
 10 11  1  0
 10 12  1  0
 12 13  1  0
 12 14  2  0
  4 15  1  0
 15 16  1  0
 15 17  2  0
 14  6  1  0
M  ISO  3   1   1   3   3  16   2
M  END
>  <symbol>  (516) 
Phe_345triF

>  <m_abbr>  (516) 
Phe_345triF

>  <m_name>  (516) 
L-3,4,5-Trifluorophenylalanine

>  <m_type>  (516) 
aa

>  <m_subtype>  (516) 
modified

>  <m_Rgroups>  (516) 
[H],[OH],[H]

>  <m_chem_types>  (516) 
1:backbone_n,2:backbone_c,3:backbone_n_mod

>  <m_activation_policy>  (516) 
canonical-sites-v1

$$$$

     RDKit          2D

 10 10  0  0  0  0  0  0  0  0999 V2000
    3.0609   -1.3208    0.0000 R   0  0  0  0  0  1  0  0  0  0  0  0
    1.9803   -0.2805    0.0000 N   0  0  0  0  0  0  0  0  0  0  0  0
    2.3409    1.1755    0.0000 R   0  0  0  0  0  1  0  0  0  0  0  0
    0.5390   -0.6962    0.0000 C   0  0  0  0  0  0  0  0  0  0  0  0
   -0.5416    0.3441    0.0000 C   0  0  0  0  0  0  0  0  0  0  0  0
   -1.7538   -0.5395    0.0000 C   0  0  0  0  0  0  0  0  0  0  0  0
   -1.5946   -2.0310    0.0000 R   0  0  0  0  0  1  0  0  0  0  0  0
   -3.1250    0.0685    0.0000 O   0  0  0  0  0  0  0  0  0  0  0  0
    0.2952    1.5889    0.0000 C   0  0  0  0  0  0  0  0  0  0  0  0
   -1.2013    1.6912    0.0000 C   0  0  0  0  0  0  0  0  0  0  0  0
  1  2  1  0
  2  3  1  0
  2  4  1  0
  4  5  1  0
  5  6  1  0
  6  7  1  0
  6  8  2  0
  5  9  1  0
  9 10  1  0
 10  5  1  0
M  ISO  3   1   1   3   3   7   2
M  END
>  <symbol>  (517) 
ACC

>  <m_abbr>  (517) 
ACC

>  <m_name>  (517) 
1-Aminocyclopropane-1-carboxylic acid

>  <m_type>  (517) 
aa

>  <m_subtype>  (517) 
modified

>  <m_Rgroups>  (517) 
[H],[OH],[H]

>  <m_chem_types>  (517) 
1:backbone_n,2:backbone_c,3:backbone_n_mod

>  <m_activation_policy>  (517) 
canonical-sites-v1

$$$$

     RDKit          2D

 10 10  0  0  0  0  0  0  0  0999 V2000
    0.2482   -2.5095    0.0000 R   0  0  0  0  0  1  0  0  0  0  0  0
    0.6364   -1.0607    0.0000 N   0  0  0  0  0  0  0  0  0  0  0  0
    2.0853   -0.6724    0.0000 R   0  0  0  0  0  1  0  0  0  0  0  0
   -0.4243    0.0000    0.0000 C   0  0  0  0  0  0  0  0  0  0  0  0
    0.6364    1.0607    0.0000 C   0  0  0  0  0  0  0  0  0  0  0  0
    2.0853    0.6724    0.0000 R   0  0  0  0  0  1  0  0  0  0  0  0
    0.2482    2.5095    0.0000 O   0  0  0  0  0  0  0  0  0  0  0  0
   -1.4849   -1.0607    0.0000 C   0  0  0  0  0  0  0  0  0  0  0  0
   -2.5456    0.0000    0.0000 C   0  0  0  0  0  0  0  0  0  0  0  0
   -1.4849    1.0607    0.0000 C   0  0  0  0  0  0  0  0  0  0  0  0
  1  2  1  0
  2  3  1  0
  2  4  1  0
  4  5  1  0
  5  6  1  0
  5  7  2  0
  4  8  1  0
  8  9  1  0
  9 10  1  0
 10  4  1  0
M  ISO  3   1   1   3   3   6   2
M  END
>  <symbol>  (518) 
ACBC

>  <m_abbr>  (518) 
ACBC

>  <m_name>  (518) 
1-Aminocyclobutane-1-carboxylic acid

>  <m_type>  (518) 
aa

>  <m_subtype>  (518) 
modified

>  <m_Rgroups>  (518) 
[H],[OH],[H]

>  <m_chem_types>  (518) 
1:backbone_n,2:backbone_c,3:backbone_n_mod

>  <m_activation_policy>  (518) 
canonical-sites-v1

$$$$

     RDKit          2D

 14 14  0  0  0  0  0  0  0  0999 V2000
    2.3660   -1.9326    0.0000 R   0  0  0  0  0  1  0  0  0  0  0  0
    1.2336   -0.9488    0.0000 N   0  0  0  0  0  0  0  0  0  0  0  0
    1.5194    0.5237    0.0000 C   0  0  0  0  0  0  0  0  0  0  0  0
    2.9376    1.0124    0.0000 C   0  0  0  0  0  0  0  0  0  0  0  0
    3.2234    2.4850    0.0000 R   0  0  0  0  0  1  0  0  0  0  0  0
    4.0699    0.0287    0.0000 O   0  0  0  0  0  0  0  0  0  0  0  0
   -0.1845   -1.4376    0.0000 C   0  0  0  0  0  0  0  0  0  0  0  0
   -0.4703   -2.9101    0.0000 C   0  0  0  0  0  0  0  0  0  0  0  0
   -1.3168   -0.4539    0.0000 C   0  0  0  0  0  0  0  0  0  0  0  0
   -2.7350   -0.9426    0.0000 C   0  0  0  0  0  0  0  0  0  0  0  0
   -3.8673    0.0411    0.0000 C   0  0  0  0  0  0  0  0  0  0  0  0
   -3.5815    1.5137    0.0000 C   0  0  0  0  0  0  0  0  0  0  0  0
   -2.1634    2.0024    0.0000 C   0  0  0  0  0  0  0  0  0  0  0  0
   -1.0311    1.0187    0.0000 C   0  0  0  0  0  0  0  0  0  0  0  0
  1  2  1  0
  2  3  1  0
  3  4  1  0
  4  5  1  0
  4  6  2  0
  2  7  1  0
  7  8  1  1
  7  9  1  0
  9 10  4  0
 10 11  4  0
 11 12  4  0
 12 13  4  0
 13 14  4  0
 14  9  4  0
M  ISO  2   1   1   5   2
M  END
>  <symbol>
Nspe

>  <m_abbr>
Nspe

>  <m_name>
N-(S-1-phenylethyl)glycine (peptoid)

>  <m_type>
aa

>  <m_subtype>
modified

>  <m_Rgroups>
[H],[OH]

>  <m_chem_types>
1:backbone_n,2:backbone_c

>  <m_activation_policy>
canonical-sites-v1

$$$$

     RDKit          2D

 14 14  0  0  0  0  0  0  0  0999 V2000
    2.3660   -1.9326    0.0000 R   0  0  0  0  0  1  0  0  0  0  0  0
    1.2336   -0.9488    0.0000 N   0  0  0  0  0  0  0  0  0  0  0  0
    1.5194    0.5237    0.0000 C   0  0  0  0  0  0  0  0  0  0  0  0
    2.9376    1.0124    0.0000 C   0  0  0  0  0  0  0  0  0  0  0  0
    3.2234    2.4850    0.0000 R   0  0  0  0  0  1  0  0  0  0  0  0
    4.0699    0.0287    0.0000 O   0  0  0  0  0  0  0  0  0  0  0  0
   -0.1845   -1.4376    0.0000 C   0  0  0  0  0  0  0  0  0  0  0  0
   -0.4703   -2.9101    0.0000 C   0  0  0  0  0  0  0  0  0  0  0  0
   -1.3168   -0.4539    0.0000 C   0  0  0  0  0  0  0  0  0  0  0  0
   -2.7350   -0.9426    0.0000 C   0  0  0  0  0  0  0  0  0  0  0  0
   -3.8673    0.0411    0.0000 C   0  0  0  0  0  0  0  0  0  0  0  0
   -3.5815    1.5137    0.0000 C   0  0  0  0  0  0  0  0  0  0  0  0
   -2.1634    2.0024    0.0000 C   0  0  0  0  0  0  0  0  0  0  0  0
   -1.0311    1.0187    0.0000 C   0  0  0  0  0  0  0  0  0  0  0  0
  1  2  1  0
  2  3  1  0
  3  4  1  0
  4  5  1  0
  4  6  2  0
  2  7  1  0
  7  8  1  6
  7  9  1  0
  9 10  4  0
 10 11  4  0
 11 12  4  0
 12 13  4  0
 13 14  4  0
 14  9  4  0
M  ISO  2   1   1   5   2
M  END
>  <symbol>
Nrpe

>  <m_abbr>
Nrpe

>  <m_name>
N-(R-1-phenylethyl)glycine (peptoid)

>  <m_type>
aa

>  <m_subtype>
modified

>  <m_Rgroups>
[H],[OH]

>  <m_chem_types>
1:backbone_n,2:backbone_c

>  <m_activation_policy>
canonical-sites-v1

$$$$

     RDKit          2D

 14 13  0  0  0  0  0  0  0  0999 V2000
    4.7059    1.8179    0.0000 R   0  0  0  0  0  1  0  0  0  0  0  0
    3.5277    0.8896    0.0000 N   0  0  0  0  0  0  0  0  0  0  0  0
    2.1346    1.4457    0.0000 C   0  0  0  0  0  0  0  0  0  0  0  0
    0.9564    0.5174    0.0000 C   0  0  0  0  0  0  0  0  0  0  0  0
   -0.4367    1.0735    0.0000 C   0  0  0  0  0  0  0  0  0  0  0  0
   -1.6149    0.1451    0.0000 C   0  0  0  0  0  0  0  0  0  0  0  0
   -3.0079    0.7013    0.0000 C   0  0  0  0  0  0  0  0  0  0  0  0
   -4.1861   -0.2271    0.0000 C   0  0  0  0  0  0  0  0  0  0  0  0
   -5.5792    0.3291    0.0000 C   0  0  0  0  0  0  0  0  0  0  0  0
   -6.7574   -0.5993    0.0000 C   0  0  0  0  0  0  0  0  0  0  0  0
    3.7426   -0.5950    0.0000 C   0  0  0  0  0  0  0  0  0  0  0  0
    2.5644   -1.5233    0.0000 C   0  0  0  0  0  0  0  0  0  0  0  0
    2.7793   -3.0078    0.0000 R   0  0  0  0  0  1  0  0  0  0  0  0
    1.1713   -0.9672    0.0000 O   0  0  0  0  0  0  0  0  0  0  0  0
  1  2  1  0
  2  3  1  0
  3  4  1  0
  4  5  1  0
  5  6  1  0
  6  7  1  0
  7  8  1  0
  8  9  1  0
  9 10  1  0
  2 11  1  0
 11 12  1  0
 12 13  1  0
 12 14  2  0
M  ISO  2   1   1  13   2
M  END
>  <symbol>  (521) 
NocGly

>  <m_abbr>  (521) 
NocGly

>  <m_name>  (521) 
N-octylglycine (lipopeptoid)

>  <m_type>  (521) 
aa

>  <m_subtype>  (521) 
modified

>  <m_Rgroups>  (521) 
[H],[OH]

>  <m_chem_types>  (521) 
1:backbone_n,2:backbone_c

>  <m_activation_policy>  (521) 
canonical-sites-v1

$$$$

     RDKit          2D

 13 13  0  0  0  0  0  0  0  0999 V2000
   -2.0806    2.2134    0.0000 R   0  0  0  0  0  1  0  0  0  0  0  0
   -0.9264    1.2554    0.0000 N   0  0  0  0  0  0  0  0  0  0  0  0
    0.4804    1.7760    0.0000 R   0  0  0  0  0  1  0  0  0  0  0  0
   -1.1789   -0.2232    0.0000 C   0  0  0  0  0  0  0  0  0  0  0  0
   -0.0246   -1.1812    0.0000 C   0  0  0  0  0  0  0  0  0  0  0  0
    1.3821   -0.6606    0.0000 C   0  0  0  0  0  0  0  0  0  0  0  0
    2.6302   -1.4926    0.0000 N   0  0  0  0  0  0  0  0  0  0  0  0
    3.8072   -0.5628    0.0000 C   0  0  0  0  0  0  0  0  0  0  0  0
    3.2866    0.8440    0.0000 C   0  0  0  0  0  0  0  0  0  0  0  0
    1.7878    0.7835    0.0000 S   0  0  0  0  0  0  0  0  0  0  0  0
   -2.5856   -0.7438    0.0000 C   0  0  0  0  0  0  0  0  0  0  0  0
   -3.7399    0.2142    0.0000 R   0  0  0  0  0  1  0  0  0  0  0  0
   -2.8382   -2.2224    0.0000 O   0  0  0  0  0  0  0  0  0  0  0  0
  1  2  1  0
  2  3  1  0
  2  4  1  0
  4  5  1  1
  5  6  1  0
  6  7  2  0
  7  8  1  0
  8  9  2  0
  9 10  1  0
  4 11  1  0
 11 12  1  0
 11 13  2  0
 10  6  1  0
M  ISO  3   1   1   3   3  12   2
M  END
>  <symbol>  (522) 
Thz2Ala

>  <m_abbr>  (522) 
Thz2Ala

>  <m_name>  (522) 
L-2-(Thiazolyl)alanine

>  <m_type>  (522) 
aa

>  <m_subtype>  (522) 
modified

>  <m_Rgroups>  (522) 
[H],[OH],[H]

>  <m_chem_types>  (522) 
1:backbone_n,2:backbone_c,3:backbone_n_mod

>  <m_activation_policy>  (522) 
canonical-sites-v1

$$$$

     RDKit          2D

 14 14  0  0  0  0  0  0  0  0999 V2000
   -2.1032    2.3401    0.0000 R   0  0  0  0  0  1  0  0  0  0  0  0
   -1.0754    1.2476    0.0000 N   0  0  0  0  0  0  0  0  0  0  0  0
    0.3847    1.5914    0.0000 R   0  0  0  0  0  1  0  0  0  0  0  0
   -1.5077   -0.1888    0.0000 C   0  0  0  0  0  0  0  0  0  0  0  0
   -0.4799   -1.2813    0.0000 C   0  0  0  0  0  0  0  0  0  0  0  0
    0.9801   -0.9375    0.0000 C   0  0  0  0  0  0  0  0  0  0  0  0
    2.1165   -1.9167    0.0000 C   0  0  0  0  0  0  0  0  0  0  0  0
    3.3989   -1.1385    0.0000 C   0  0  0  0  0  0  0  0  0  0  0  0
    3.0551    0.3216    0.0000 N   0  0  0  0  0  0  0  0  0  0  0  0
    4.0342    1.4579    0.0000 R   0  0  0  0  0  1  0  0  0  0  0  0
    1.5602    0.4458    0.0000 N   0  0  0  0  0  0  0  0  0  0  0  0
   -2.9678   -0.5326    0.0000 C   0  0  0  0  0  0  0  0  0  0  0  0
   -3.9955    0.5600    0.0000 R   0  0  0  0  0  1  0  0  0  0  0  0
   -3.4001   -1.9689    0.0000 O   0  0  0  0  0  0  0  0  0  0  0  0
  1  2  1  0
  2  3  1  0
  2  4  1  0
  4  5  1  1
  5  6  1  0
  6  7  1  0
  7  8  2  0
  8  9  1  0
  9 10  1  0
  9 11  1  0
  4 12  1  0
 12 13  1  0
 12 14  2  0
 11  6  2  0
M  ISO  4   1   1   3   3  10   4  13   2
M  END
>  <symbol>  (523) 
Pyz3Ala

>  <m_abbr>  (523) 
Pyz3Ala

>  <m_name>  (523) 
L-3-(Pyrazolyl)alanine

>  <m_type>  (523) 
aa

>  <m_subtype>  (523) 
modified

>  <m_Rgroups>  (523) 
[H],[OH],[H],[H]

>  <m_chem_types>  (523) 
1:backbone_n,2:backbone_c,3:backbone_n_mod,4:aromatic_nh

>  <m_activation_policy>  (523) 
canonical-sites-v1

$$$$

     RDKit          2D

 14 14  0  0  0  0  0  0  0  0999 V2000
   -2.5982    2.0750    0.0000 R   0  0  0  0  0  1  0  0  0  0  0  0
   -1.3182    1.2930    0.0000 N   0  0  0  0  0  0  0  0  0  0  0  0
   -0.0009    2.0105    0.0000 R   0  0  0  0  0  1  0  0  0  0  0  0
   -1.3555   -0.2066    0.0000 C   0  0  0  0  0  0  0  0  0  0  0  0
   -0.0755   -0.9886    0.0000 C   0  0  0  0  0  0  0  0  0  0  0  0
    1.2418   -0.2711    0.0000 C   0  0  0  0  0  0  0  0  0  0  0  0
    1.4356    1.2163    0.0000 N   0  0  0  0  0  0  0  0  0  0  0  0
    2.9102    1.4916    0.0000 C   0  0  0  0  0  0  0  0  0  0  0  0
    3.6276    0.1743    0.0000 C   0  0  0  0  0  0  0  0  0  0  0  0
    2.5966   -0.9151    0.0000 N   0  0  0  0  0  0  0  0  0  0  0  0
    2.8719   -2.3896    0.0000 R   0  0  0  0  0  1  0  0  0  0  0  0
   -2.6727   -0.9241    0.0000 C   0  0  0  0  0  0  0  0  0  0  0  0
   -3.9527   -0.1420    0.0000 R   0  0  0  0  0  1  0  0  0  0  0  0
   -2.7100   -2.4236    0.0000 O   0  0  0  0  0  0  0  0  0  0  0  0
  1  2  1  0
  2  3  1  0
  2  4  1  0
  4  5  1  1
  5  6  1  0
  6  7  2  0
  7  8  1  0
  8  9  2  0
  9 10  1  0
 10 11  1  0
  4 12  1  0
 12 13  1  0
 12 14  2  0
 10  6  1  0
M  ISO  4   1   1   3   3  11   4  13   2
M  END
>  <symbol>  (524) 
Im2Ala

>  <m_abbr>  (524) 
Im2Ala

>  <m_name>  (524) 
L-2-(Imidazolyl)alanine

>  <m_type>  (524) 
aa

>  <m_subtype>  (524) 
modified

>  <m_Rgroups>  (524) 
[H],[OH],[H],[H]

>  <m_chem_types>  (524) 
1:backbone_n,2:backbone_c,3:backbone_n_mod,4:aromatic_nh

>  <m_activation_policy>  (524) 
canonical-sites-v1

$$$$

     RDKit          2D

 16 15  0  0  0  0  0  0  0  0999 V2000
   -5.7510   -0.4178    0.0000 R   0  0  0  0  0  1  0  0  0  0  0  0
   -4.3855   -1.0386    0.0000 N   0  0  0  0  0  0  0  0  0  0  0  0
   -4.2404   -2.5315    0.0000 R   0  0  0  0  0  1  0  0  0  0  0  0
   -3.1652   -0.1664    0.0000 C   0  0  0  0  0  0  0  0  0  0  0  0
   -1.7996   -0.7872    0.0000 C   0  0  0  0  0  0  0  0  0  0  0  0
   -0.5793    0.0850    0.0000 C   0  0  0  0  0  0  0  0  0  0  0  0
    0.7862   -0.5358    0.0000 C   0  0  0  0  0  0  0  0  0  0  0  0
    2.0066    0.3363    0.0000 C   0  0  0  0  0  0  0  0  0  0  0  0
    3.3721   -0.2844    0.0000 C   0  0  0  0  0  0  0  0  0  0  0  0
    4.5925    0.5877    0.0000 C   0  0  0  0  0  0  0  0  0  0  0  0
    5.9580   -0.0331    0.0000 N   0  0  0  0  0  0  0  0  0  0  0  0
    7.1784    0.8391    0.0000 R   0  0  0  0  0  1  0  0  0  0  0  0
    6.1031   -1.5260    0.0000 R   0  0  0  0  0  1  0  0  0  0  0  0
   -3.3103    1.3266    0.0000 C   0  0  0  0  0  0  0  0  0  0  0  0
   -2.0899    2.1987    0.0000 R   0  0  0  0  0  1  0  0  0  0  0  0
   -4.6758    1.9474    0.0000 O   0  0  0  0  0  0  0  0  0  0  0  0
  1  2  1  0
  2  3  1  0
  2  4  1  0
  4  5  1  6
  5  6  1  0
  6  7  1  0
  7  8  1  0
  8  9  1  0
  9 10  1  0
 10 11  1  0
 11 12  1  0
 11 13  1  0
  4 14  1  0
 14 15  1  0
 14 16  2  0
M  ISO  5   1   1   3   3  12   4  13   5  15   2
M  END
>  <symbol>  (525) 
Dao

>  <m_abbr>  (525) 
Dao

>  <m_name>  (525) 
L-2,8-Diaminooctanoic acid

>  <m_type>  (525) 
aa

>  <m_subtype>  (525) 
modified

>  <m_Rgroups>  (525) 
[H],[OH],[H],[H],[H]

>  <m_chem_types>  (525) 
1:backbone_n,2:backbone_c,3:backbone_n_mod,4:amine_primary,5:amine_primary

>  <m_activation_policy>  (525) 
canonical-sites-v1

$$$$

     RDKit          2D

 11 11  0  0  0  0  0  0  0  0999 V2000
    3.1235   -0.6434    0.0000 R   0  0  0  0  0  1  0  0  0  0  0  0
    1.6317   -0.8002    0.0000 N   0  0  0  0  0  0  0  0  0  0  0  0
    1.0216   -2.1705    0.0000 R   0  0  0  0  0  1  0  0  0  0  0  0
    0.7500    0.4133    0.0000 C   0  0  0  0  0  0  0  0  0  0  0  0
    1.2135    1.8399    0.0000 C   0  0  0  0  0  0  0  0  0  0  0  0
    0.0000    2.7216    0.0000 C   0  0  0  0  0  0  0  0  0  0  0  0
   -1.2135    1.8399    0.0000 C   0  0  0  0  0  0  0  0  0  0  0  0
   -0.7500    0.4133    0.0000 C   0  0  0  0  0  0  0  0  0  0  0  0
   -1.6317   -0.8002    0.0000 C   0  0  0  0  0  0  0  0  0  0  0  0
   -3.1235   -0.6434    0.0000 R   0  0  0  0  0  1  0  0  0  0  0  0
   -1.0216   -2.1705    0.0000 O   0  0  0  0  0  0  0  0  0  0  0  0
  1  2  1  0
  2  3  1  0
  4  2  1  1
  4  5  1  0
  5  6  1  0
  6  7  1  0
  7  8  1  0
  8  9  1  6
  9 10  1  0
  9 11  2  0
  8  4  1  0
M  ISO  3   1   1   3   3  10   2
M  END
>  <symbol>  (526) 
ACPC

>  <m_abbr>  (526) 
ACPC

>  <m_name>  (526) 
cis-(1R,2S)-ACPC scaffold residue

>  <m_type>  (526) 
aa

>  <m_subtype>  (526) 
modified

>  <m_Rgroups>  (526) 
[H],[OH],[H]

>  <m_chem_types>  (526) 
1:backbone_n,2:backbone_c,3:backbone_n_mod

>  <m_activation_policy>  (526) 
canonical-sites-v1

$$$$

     RDKit          2D

 15 15  0  0  0  0  0  0  0  0999 V2000
   -2.1298    1.7590    0.0000 R   0  0  0  0  0  1  0  0  0  0  0  0
   -0.8885    0.9168    0.0000 N   0  0  0  0  0  0  0  0  0  0  0  0
    0.4614    1.5707    0.0000 R   0  0  0  0  0  1  0  0  0  0  0  0
   -0.9972   -0.5793    0.0000 C   0  0  0  0  0  0  0  0  0  0  0  0
   -2.3472   -1.2332    0.0000 C   0  0  0  0  0  0  0  0  0  0  0  0
   -3.5885   -0.3910    0.0000 C   0  0  0  0  0  0  0  0  0  0  0  0
   -4.9384   -1.0449    0.0000 R   0  0  0  0  0  1  0  0  0  0  0  0
   -3.4798    1.1051    0.0000 O   0  0  0  0  0  0  0  0  0  0  0  0
    0.2441   -1.4214    0.0000 C   0  0  0  0  0  0  0  0  0  0  0  0
    1.5940   -0.7675    0.0000 C   0  0  0  0  0  0  0  0  0  0  0  0
    1.7027    0.7285    0.0000 C   0  0  0  0  0  0  0  0  0  0  0  0
    3.0527    1.3824    0.0000 C   0  0  0  0  0  0  0  0  0  0  0  0
    4.2940    0.5403    0.0000 C   0  0  0  0  0  0  0  0  0  0  0  0
    4.1853   -0.9558    0.0000 C   0  0  0  0  0  0  0  0  0  0  0  0
    2.8353   -1.6097    0.0000 C   0  0  0  0  0  0  0  0  0  0  0  0
  1  2  1  0
  2  3  1  0
  2  4  1  0
  4  5  1  6
  5  6  1  0
  6  7  1  0
  6  8  2  0
  4  9  1  0
  9 10  1  0
 10 11  2  0
 11 12  1  0
 12 13  2  0
 13 14  1  0
 14 15  2  0
 15 10  1  0
M  ISO  3   1   1   3   3   7   2
M  END
>  <symbol>  (527) 
D_b3hPhe

>  <m_abbr>  (527) 
D_b3hPhe

>  <m_name>  (527) 
D-beta3-Homophenylalanine

>  <m_type>  (527) 
aa

>  <m_subtype>  (527) 
modified

>  <m_Rgroups>  (527) 
[H],[OH],[H]

>  <m_chem_types>  (527) 
1:backbone_n,2:backbone_c,3:backbone_n_mod

>  <m_activation_policy>  (527) 
canonical-sites-v1

$$$$

     RDKit          2D

 12 11  0  0  0  0  0  0  0  0999 V2000
   -0.3702    3.0188    0.0000 R   0  0  0  0  0  1  0  0  0  0  0  0
   -0.8410    1.5946    0.0000 N   0  0  0  0  0  0  0  0  0  0  0  0
   -2.3098    1.2902    0.0000 R   0  0  0  0  0  1  0  0  0  0  0  0
    0.1569    0.4747    0.0000 C   0  0  0  0  0  0  0  0  0  0  0  0
    1.6257    0.7791    0.0000 C   0  0  0  0  0  0  0  0  0  0  0  0
    2.6237   -0.3408    0.0000 C   0  0  0  0  0  0  0  0  0  0  0  0
    4.0925   -0.0364    0.0000 R   0  0  0  0  0  1  0  0  0  0  0  0
    2.1529   -1.7650    0.0000 O   0  0  0  0  0  0  0  0  0  0  0  0
   -0.3139   -0.9495    0.0000 C   0  0  0  0  0  0  0  0  0  0  0  0
   -1.7827   -1.2538    0.0000 C   0  0  0  0  0  0  0  0  0  0  0  0
   -2.7807   -0.1340    0.0000 C   0  0  0  0  0  0  0  0  0  0  0  0
   -2.2535   -2.6780    0.0000 C   0  0  0  0  0  0  0  0  0  0  0  0
  1  2  1  0
  2  3  1  0
  2  4  1  0
  4  5  1  1
  5  6  1  0
  6  7  1  0
  6  8  2  0
  4  9  1  0
  9 10  1  0
 10 11  1  0
 10 12  1  0
M  ISO  3   1   1   3   3   7   2
M  END
>  <symbol>  (528) 
D_b3hLeu

>  <m_abbr>  (528) 
D_b3hLeu

>  <m_name>  (528) 
D-beta3-Homoleucine

>  <m_type>  (528) 
aa

>  <m_subtype>  (528) 
modified

>  <m_Rgroups>  (528) 
[H],[OH],[H]

>  <m_chem_types>  (528) 
1:backbone_n,2:backbone_c,3:backbone_n_mod

>  <m_activation_policy>  (528) 
canonical-sites-v1

$$$$

     RDKit          2D

 11 10  0  0  0  0  0  0  0  0999 V2000
   -3.0813    0.0866    0.0000 R   0  0  0  0  0  1  0  0  0  0  0  0
   -1.8784   -0.8095    0.0000 N   0  0  0  0  0  0  0  0  0  0  0  0
   -2.0531   -2.2993    0.0000 R   0  0  0  0  0  1  0  0  0  0  0  0
   -0.5009   -0.2159    0.0000 C   0  0  0  0  0  0  0  0  0  0  0  0
    0.7020   -1.1120    0.0000 C   0  0  0  0  0  0  0  0  0  0  0  0
    2.0795   -0.5184    0.0000 C   0  0  0  0  0  0  0  0  0  0  0  0
    3.2824   -1.4145    0.0000 R   0  0  0  0  0  1  0  0  0  0  0  0
    2.2541    0.9714    0.0000 O   0  0  0  0  0  0  0  0  0  0  0  0
   -0.3263    1.2739    0.0000 C   0  0  0  0  0  0  0  0  0  0  0  0
    1.0513    1.8676    0.0000 C   0  0  0  0  0  0  0  0  0  0  0  0
   -1.5291    2.1701    0.0000 C   0  0  0  0  0  0  0  0  0  0  0  0
  1  2  1  0
  2  3  1  0
  2  4  1  0
  4  5  1  6
  5  6  1  0
  6  7  1  0
  6  8  2  0
  4  9  1  0
  9 10  1  0
  9 11  1  0
M  ISO  3   1   1   3   3   7   2
M  END
>  <symbol>  (529) 
D_b3hVal

>  <m_abbr>  (529) 
D_b3hVal

>  <m_name>  (529) 
D-beta3-Homovaline

>  <m_type>  (529) 
aa

>  <m_subtype>  (529) 
modified

>  <m_Rgroups>  (529) 
[H],[OH],[H]

>  <m_chem_types>  (529) 
1:backbone_n,2:backbone_c,3:backbone_n_mod

>  <m_activation_policy>  (529) 
canonical-sites-v1

$$$$

     RDKit          2D

 19 20  0  0  0  0  0  0  0  0999 V2000
   -3.4744   -1.5781    0.0000 R   0  0  0  0  0  1  0  0  0  0  0  0
   -2.1056   -0.9645    0.0000 N   0  0  0  0  0  0  0  0  0  0  0  0
   -0.8899   -1.8432    0.0000 R   0  0  0  0  0  1  0  0  0  0  0  0
   -1.9525    0.5276    0.0000 C   0  0  0  0  0  0  0  0  0  0  0  0
   -3.1683    1.4063    0.0000 C   0  0  0  0  0  0  0  0  0  0  0  0
   -4.5371    0.7927    0.0000 C   0  0  0  0  0  0  0  0  0  0  0  0
   -5.7528    1.6713    0.0000 R   0  0  0  0  0  1  0  0  0  0  0  0
   -4.6901   -0.6995    0.0000 O   0  0  0  0  0  0  0  0  0  0  0  0
   -0.5838    1.1412    0.0000 C   0  0  0  0  0  0  0  0  0  0  0  0
    0.6320    0.2626    0.0000 C   0  0  0  0  0  0  0  0  0  0  0  0
    0.6357   -1.2374    0.0000 C   0  0  0  0  0  0  0  0  0  0  0  0
    2.0635   -1.6974    0.0000 N   0  0  0  0  0  0  0  0  0  0  0  0
    2.5306   -3.1228    0.0000 R   0  0  0  0  0  1  0  0  0  0  0  0
    2.9421   -0.4816    0.0000 C   0  0  0  0  0  0  0  0  0  0  0  0
    4.4335   -0.3211    0.0000 C   0  0  0  0  0  0  0  0  0  0  0  0
    5.0402    1.0507    0.0000 C   0  0  0  0  0  0  0  0  0  0  0  0
    4.1554    2.2620    0.0000 C   0  0  0  0  0  0  0  0  0  0  0  0
    2.6640    2.1015    0.0000 C   0  0  0  0  0  0  0  0  0  0  0  0
    2.0574    0.7297    0.0000 C   0  0  0  0  0  0  0  0  0  0  0  0
  1  2  1  0
  2  3  1  0
  2  4  1  0
  4  5  1  1
  5  6  1  0
  6  7  1  0
  6  8  2  0
  4  9  1  0
  9 10  1  0
 10 11  1  0
 11 12  1  0
 12 13  1  0
 12 14  1  0
 14 15  1  0
 15 16  1  0
 16 17  1  0
 17 18  1  0
 18 19  1  0
 19 10  1  0
 19 14  1  0
M  ISO  4   1   1   3   3   7   2  13   4
M  END
>  <symbol>  (530) 
D_b3hTrp

>  <m_abbr>  (530) 
D_b3hTrp

>  <m_name>  (530) 
D-beta3-Homotryptophan

>  <m_type>  (530) 
aa

>  <m_subtype>  (530) 
modified

>  <m_Rgroups>  (530) 
[H],[OH],[H],[H]

>  <m_chem_types>  (530) 
1:backbone_n,2:backbone_c,3:backbone_n_mod,4:amine_secondary

>  <m_activation_policy>  (530) 
canonical-sites-v1

$$$$

     RDKit          2D

 11 10  0  0  0  0  0  0  0  0999 V2000
   -3.0682    1.2990    0.0000 R   0  0  0  0  0  1  0  0  0  0  0  0
   -2.3182    0.0000    0.0000 N   0  0  0  0  0  0  0  0  0  0  0  0
   -3.0682   -1.2990    0.0000 R   0  0  0  0  0  1  0  0  0  0  0  0
   -0.8182   -0.0000    0.0000 C   0  0  0  0  0  0  0  0  0  0  0  0
   -0.0682    1.2990    0.0000 C   0  0  0  0  0  0  0  0  0  0  0  0
    1.4318    1.2990    0.0000 O   0  0  0  0  0  0  0  0  0  0  0  0
    2.1818    2.5981    0.0000 R   0  0  0  0  0  1  0  0  0  0  0  0
   -0.0682   -1.2990    0.0000 C   0  0  0  0  0  0  0  0  0  0  0  0
    1.4318   -1.2990    0.0000 C   0  0  0  0  0  0  0  0  0  0  0  0
    2.1818   -2.5981    0.0000 R   0  0  0  0  0  1  0  0  0  0  0  0
    2.1818    0.0000    0.0000 O   0  0  0  0  0  0  0  0  0  0  0  0
  1  2  1  0
  2  3  1  0
  2  4  1  0
  4  5  1  6
  5  6  1  0
  6  7  1  0
  4  8  1  0
  8  9  1  0
  9 10  1  0
  9 11  2  0
M  ISO  4   1   1   3   3   7   4  10   2
M  END
>  <symbol>  (531) 
D_b3hSer

>  <m_abbr>  (531) 
D_b3hSer

>  <m_name>  (531) 
D-beta3-Homoserine

>  <m_type>  (531) 
aa

>  <m_subtype>  (531) 
modified

>  <m_Rgroups>  (531) 
[H],[OH],[H],[H]

>  <m_chem_types>  (531) 
1:backbone_n,2:backbone_c,3:backbone_n_mod,4:hydroxyl

>  <m_activation_policy>  (531) 
canonical-sites-v1

$$$$

     RDKit          2D

  9  8  0  0  0  0  0  0  0  0999 V2000
   -2.2062    1.7302    0.0000 R   0  0  0  0  0  1  0  0  0  0  0  0
   -1.9487    0.2525    0.0000 N   0  0  0  0  0  0  0  0  0  0  0  0
   -3.0997   -0.7094    0.0000 R   0  0  0  0  0  1  0  0  0  0  0  0
   -0.5402   -0.2633    0.0000 C   0  0  0  0  0  0  0  0  0  0  0  0
   -0.2826   -1.7410    0.0000 C   0  0  0  0  0  0  0  0  0  0  0  0
    0.6108    0.6986    0.0000 C   0  0  0  0  0  0  0  0  0  0  0  0
    2.0193    0.1828    0.0000 C   0  0  0  0  0  0  0  0  0  0  0  0
    3.1703    1.1447    0.0000 R   0  0  0  0  0  1  0  0  0  0  0  0
    2.2769   -1.2950    0.0000 O   0  0  0  0  0  0  0  0  0  0  0  0
  1  2  1  0
  2  3  1  0
  2  4  1  0
  4  5  1  1
  4  6  1  0
  6  7  1  0
  7  8  1  0
  7  9  2  0
M  ISO  3   1   1   3   3   8   2
M  END
>  <symbol>  (532) 
D_b3hAla

>  <m_abbr>  (532) 
D_b3hAla

>  <m_name>  (532) 
D-beta3-Homoalanine

>  <m_type>  (532) 
aa

>  <m_subtype>  (532) 
modified

>  <m_Rgroups>  (532) 
[H],[OH],[H]

>  <m_chem_types>  (532) 
1:backbone_n,2:backbone_c,3:backbone_n_mod

>  <m_activation_policy>  (532) 
canonical-sites-v1

$$$$

     RDKit          2D

 25 24  0  0  0  0  0  0  0  0999 V2000
  -14.2894    0.5100    0.0000 R   0  0  0  0  0  1  0  0  0  0  0  0
  -12.9904   -0.2400    0.0000 N   0  0  0  0  0  0  0  0  0  0  0  0
  -12.9904   -1.7400    0.0000 R   0  0  0  0  0  1  0  0  0  0  0  0
  -11.6913    0.5100    0.0000 C   0  0  0  0  0  0  0  0  0  0  0  0
  -10.3923   -0.2400    0.0000 C   0  0  0  0  0  0  0  0  0  0  0  0
   -9.0933    0.5100    0.0000 O   0  0  0  0  0  0  0  0  0  0  0  0
   -7.7942   -0.2400    0.0000 C   0  0  0  0  0  0  0  0  0  0  0  0
   -6.4952    0.5100    0.0000 C   0  0  0  0  0  0  0  0  0  0  0  0
   -5.1962   -0.2400    0.0000 O   0  0  0  0  0  0  0  0  0  0  0  0
   -3.8971    0.5100    0.0000 C   0  0  0  0  0  0  0  0  0  0  0  0
   -2.5981   -0.2400    0.0000 C   0  0  0  0  0  0  0  0  0  0  0  0
   -1.2990    0.5100    0.0000 O   0  0  0  0  0  0  0  0  0  0  0  0
   -0.0000   -0.2400    0.0000 C   0  0  0  0  0  0  0  0  0  0  0  0
    1.2990    0.5100    0.0000 C   0  0  0  0  0  0  0  0  0  0  0  0
    2.5981   -0.2400    0.0000 O   0  0  0  0  0  0  0  0  0  0  0  0
    3.8971    0.5100    0.0000 C   0  0  0  0  0  0  0  0  0  0  0  0
    5.1962   -0.2400    0.0000 C   0  0  0  0  0  0  0  0  0  0  0  0
    6.4952    0.5100    0.0000 O   0  0  0  0  0  0  0  0  0  0  0  0
    7.7942   -0.2400    0.0000 C   0  0  0  0  0  0  0  0  0  0  0  0
    9.0933    0.5100    0.0000 C   0  0  0  0  0  0  0  0  0  0  0  0
   10.3923   -0.2400    0.0000 O   0  0  0  0  0  0  0  0  0  0  0  0
   11.6913    0.5100    0.0000 C   0  0  0  0  0  0  0  0  0  0  0  0
   12.9904   -0.2400    0.0000 C   0  0  0  0  0  0  0  0  0  0  0  0
   14.2894    0.5100    0.0000 R   0  0  0  0  0  1  0  0  0  0  0  0
   12.9904   -1.7400    0.0000 O   0  0  0  0  0  0  0  0  0  0  0  0
  1  2  1  0
  2  3  1  0
  2  4  1  0
  4  5  1  0
  5  6  1  0
  6  7  1  0
  7  8  1  0
  8  9  1  0
  9 10  1  0
 10 11  1  0
 11 12  1  0
 12 13  1  0
 13 14  1  0
 14 15  1  0
 15 16  1  0
 16 17  1  0
 17 18  1  0
 18 19  1  0
 19 20  1  0
 20 21  1  0
 21 22  1  0
 22 23  1  0
 23 24  1  0
 23 25  2  0
M  ISO  3   1   1   3   3  24   2
M  END
>  <symbol>  (533) 
OEG6

>  <m_abbr>  (533) 
OEG6

>  <m_name>  (533) 
20-Amino-3,6,9,12,15,18-hexaoxaicosanoic acid (mini-PEG 6-unit)

>  <m_type>  (533) 
linker

>  <m_subtype>  (533) 
linker

>  <m_Rgroups>  (533) 
[H],[OH],[H]

>  <m_chem_types>  (533) 
1:backbone_n,2:backbone_c,3:backbone_n_mod

>  <m_activation_policy>  (533) 
canonical-sites-v1

$$$$

     RDKit          2D

 13 13  0  0  0  0  0  0  0  0999 V2000
   -2.0806    2.2134    0.0000 R   0  0  0  0  0  1  0  0  0  0  0  0
   -0.9264    1.2554    0.0000 N   0  0  0  0  0  0  0  0  0  0  0  0
    0.4804    1.7760    0.0000 R   0  0  0  0  0  1  0  0  0  0  0  0
   -1.1789   -0.2232    0.0000 C   0  0  0  0  0  0  0  0  0  0  0  0
   -0.0246   -1.1812    0.0000 C   0  0  0  0  0  0  0  0  0  0  0  0
    1.3821   -0.6606    0.0000 C   0  0  0  0  0  0  0  0  0  0  0  0
    2.6302   -1.4926    0.0000 C   0  0  0  0  0  0  0  0  0  0  0  0
    3.8072   -0.5628    0.0000 C   0  0  0  0  0  0  0  0  0  0  0  0
    3.2866    0.8440    0.0000 C   0  0  0  0  0  0  0  0  0  0  0  0
    1.7878    0.7835    0.0000 O   0  0  0  0  0  0  0  0  0  0  0  0
   -2.5856   -0.7438    0.0000 C   0  0  0  0  0  0  0  0  0  0  0  0
   -3.7399    0.2142    0.0000 R   0  0  0  0  0  1  0  0  0  0  0  0
   -2.8382   -2.2224    0.0000 O   0  0  0  0  0  0  0  0  0  0  0  0
  1  2  1  0
  2  3  1  0
  2  4  1  0
  4  5  1  6
  5  6  1  0
  6  7  2  0
  7  8  1  0
  8  9  2  0
  9 10  1  0
  4 11  1  0
 11 12  1  0
 11 13  2  0
 10  6  1  0
M  ISO  3   1   1   3   3  12   2
M  END
>  <symbol>  (534) 
D_Fur2Ala

>  <m_abbr>  (534) 
D_Fur2Ala

>  <m_name>  (534) 
D-2-Furylalanine

>  <m_type>  (534) 
aa

>  <m_subtype>  (534) 
modified

>  <m_Rgroups>  (534) 
[H],[OH],[H]

>  <m_chem_types>  (534) 
1:backbone_n,2:backbone_c,3:backbone_n_mod

>  <m_activation_policy>  (534) 
canonical-sites-v1

$$$$

     RDKit          2D

 13 13  0  0  0  0  0  0  0  0999 V2000
   -2.0806    2.2134    0.0000 R   0  0  0  0  0  1  0  0  0  0  0  0
   -0.9264    1.2554    0.0000 N   0  0  0  0  0  0  0  0  0  0  0  0
    0.4804    1.7760    0.0000 R   0  0  0  0  0  1  0  0  0  0  0  0
   -1.1789   -0.2232    0.0000 C   0  0  0  0  0  0  0  0  0  0  0  0
   -0.0246   -1.1812    0.0000 C   0  0  0  0  0  0  0  0  0  0  0  0
    1.3821   -0.6606    0.0000 C   0  0  0  0  0  0  0  0  0  0  0  0
    2.6302   -1.4926    0.0000 C   0  0  0  0  0  0  0  0  0  0  0  0
    3.8072   -0.5628    0.0000 C   0  0  0  0  0  0  0  0  0  0  0  0
    3.2866    0.8440    0.0000 O   0  0  0  0  0  0  0  0  0  0  0  0
    1.7878    0.7835    0.0000 C   0  0  0  0  0  0  0  0  0  0  0  0
   -2.5856   -0.7438    0.0000 C   0  0  0  0  0  0  0  0  0  0  0  0
   -3.7399    0.2142    0.0000 R   0  0  0  0  0  1  0  0  0  0  0  0
   -2.8382   -2.2224    0.0000 O   0  0  0  0  0  0  0  0  0  0  0  0
  1  2  1  0
  2  3  1  0
  2  4  1  0
  4  5  1  6
  5  6  1  0
  6  7  1  0
  7  8  2  0
  8  9  1  0
  9 10  1  0
  4 11  1  0
 11 12  1  0
 11 13  2  0
 10  6  2  0
M  ISO  3   1   1   3   3  12   2
M  END
>  <symbol>  (535) 
D_Fur3Ala

>  <m_abbr>  (535) 
D_Fur3Ala

>  <m_name>  (535) 
D-3-Furylalanine

>  <m_type>  (535) 
aa

>  <m_subtype>  (535) 
modified

>  <m_Rgroups>  (535) 
[H],[OH],[H]

>  <m_chem_types>  (535) 
1:backbone_n,2:backbone_c,3:backbone_n_mod

>  <m_activation_policy>  (535) 
canonical-sites-v1

$$$$

     RDKit          2D

 20 21  0  0  0  0  0  0  0  0999 V2000
   -4.0435    2.4376    0.0000 R   0  0  0  0  0  1  0  0  0  0  0  0
   -3.0535    1.3107    0.0000 N   0  0  0  0  0  0  0  0  0  0  0  0
   -1.5826    1.6046    0.0000 R   0  0  0  0  0  1  0  0  0  0  0  0
   -3.5344   -0.1101    0.0000 C   0  0  0  0  0  0  0  0  0  0  0  0
   -2.5445   -1.2370    0.0000 C   0  0  0  0  0  0  0  0  0  0  0  0
   -1.0735   -0.9431    0.0000 C   0  0  0  0  0  0  0  0  0  0  0  0
   -0.5926    0.4777    0.0000 C   0  0  0  0  0  0  0  0  0  0  0  0
    0.8783    0.7716    0.0000 C   0  0  0  0  0  0  0  0  0  0  0  0
    1.8683   -0.3553    0.0000 C   0  0  0  0  0  0  0  0  0  0  0  0
    3.3393   -0.0614    0.0000 C   0  0  0  0  0  0  0  0  0  0  0  0
    4.3292   -1.1883    0.0000 C   0  0  0  0  0  0  0  0  0  0  0  0
    5.8002   -0.8944    0.0000 C   0  0  0  0  0  0  0  0  0  0  0  0
    6.2811    0.5264    0.0000 C   0  0  0  0  0  0  0  0  0  0  0  0
    5.2911    1.6533    0.0000 C   0  0  0  0  0  0  0  0  0  0  0  0
    3.8202    1.3594    0.0000 C   0  0  0  0  0  0  0  0  0  0  0  0
    1.3874   -1.7761    0.0000 C   0  0  0  0  0  0  0  0  0  0  0  0
   -0.0835   -2.0700    0.0000 C   0  0  0  0  0  0  0  0  0  0  0  0
   -5.0054   -0.4040    0.0000 C   0  0  0  0  0  0  0  0  0  0  0  0
   -5.9954    0.7229    0.0000 R   0  0  0  0  0  1  0  0  0  0  0  0
   -5.4863   -1.8248    0.0000 O   0  0  0  0  0  0  0  0  0  0  0  0
  1  2  1  0
  2  3  1  0
  2  4  1  0
  4  5  1  6
  5  6  1  0
  6  7  1  0
  7  8  2  0
  8  9  1  0
  9 10  1  0
 10 11  2  0
 11 12  1  0
 12 13  2  0
 13 14  1  0
 14 15  2  0
  9 16  2  0
 16 17  1  0
  4 18  1  0
 18 19  1  0
 18 20  2  0
 17  6  2  0
 15 10  1  0
M  ISO  3   1   1   3   3  19   2
M  END
>  <symbol>  (536) 
D_BiPheAla

>  <m_abbr>  (536) 
D_BiPheAla

>  <m_name>  (536) 
D-4-Biphenylalanine

>  <m_type>  (536) 
aa

>  <m_subtype>  (536) 
modified

>  <m_Rgroups>  (536) 
[H],[OH],[H]

>  <m_chem_types>  (536) 
1:backbone_n,2:backbone_c,3:backbone_n_mod

>  <m_activation_policy>  (536) 
canonical-sites-v1

$$$$

     RDKit          2D

 12 12  0  0  0  0  0  0  0  0999 V2000
   -1.7982    2.2203    0.0000 R   0  0  0  0  0  1  0  0  0  0  0  0
   -0.6440    1.2622    0.0000 N   0  0  0  0  0  0  0  0  0  0  0  0
    0.7628    1.7827    0.0000 R   0  0  0  0  0  1  0  0  0  0  0  0
   -0.8967   -0.2163    0.0000 C   0  0  0  0  0  0  0  0  0  0  0  0
    0.2575   -1.1744    0.0000 C   0  0  0  0  0  0  0  0  0  0  0  0
    1.6643   -0.6539    0.0000 C   0  0  0  0  0  0  0  0  0  0  0  0
    2.2910    0.7089    0.0000 C   0  0  0  0  0  0  0  0  0  0  0  0
    3.6538    0.0821    0.0000 C   0  0  0  0  0  0  0  0  0  0  0  0
    3.0271   -1.2807    0.0000 C   0  0  0  0  0  0  0  0  0  0  0  0
   -2.3035   -0.7368    0.0000 C   0  0  0  0  0  0  0  0  0  0  0  0
   -3.4577    0.2213    0.0000 R   0  0  0  0  0  1  0  0  0  0  0  0
   -2.5562   -2.2154    0.0000 O   0  0  0  0  0  0  0  0  0  0  0  0
  1  2  1  0
  2  3  1  0
  2  4  1  0
  4  5  1  6
  5  6  1  0
  6  7  1  0
  7  8  1  0
  8  9  1  0
  4 10  1  0
 10 11  1  0
 10 12  2  0
  9  6  1  0
M  ISO  3   1   1   3   3  11   2
M  END
>  <symbol>  (537) 
D_cBuAla

>  <m_abbr>  (537) 
D_cBuAla

>  <m_name>  (537) 
D-Cyclobutylalanine

>  <m_type>  (537) 
aa

>  <m_subtype>  (537) 
modified

>  <m_Rgroups>  (537) 
[H],[OH],[H]

>  <m_chem_types>  (537) 
1:backbone_n,2:backbone_c,3:backbone_n_mod

>  <m_activation_policy>  (537) 
canonical-sites-v1

$$$$

     RDKit          2D

 13 13  0  0  0  0  0  0  0  0999 V2000
   -2.0806    2.2134    0.0000 R   0  0  0  0  0  1  0  0  0  0  0  0
   -0.9264    1.2554    0.0000 N   0  0  0  0  0  0  0  0  0  0  0  0
    0.4804    1.7760    0.0000 R   0  0  0  0  0  1  0  0  0  0  0  0
   -1.1789   -0.2232    0.0000 C   0  0  0  0  0  0  0  0  0  0  0  0
   -0.0246   -1.1812    0.0000 C   0  0  0  0  0  0  0  0  0  0  0  0
    1.3821   -0.6606    0.0000 C   0  0  0  0  0  0  0  0  0  0  0  0
    2.6302   -1.4926    0.0000 C   0  0  0  0  0  0  0  0  0  0  0  0
    3.8072   -0.5628    0.0000 C   0  0  0  0  0  0  0  0  0  0  0  0
    3.2866    0.8440    0.0000 C   0  0  0  0  0  0  0  0  0  0  0  0
    1.7878    0.7835    0.0000 C   0  0  0  0  0  0  0  0  0  0  0  0
   -2.5856   -0.7438    0.0000 C   0  0  0  0  0  0  0  0  0  0  0  0
   -3.7399    0.2142    0.0000 R   0  0  0  0  0  1  0  0  0  0  0  0
   -2.8382   -2.2224    0.0000 O   0  0  0  0  0  0  0  0  0  0  0  0
  1  2  1  0
  2  3  1  0
  2  4  1  0
  4  5  1  6
  5  6  1  0
  6  7  1  0
  7  8  1  0
  8  9  1  0
  9 10  1  0
  4 11  1  0
 11 12  1  0
 11 13  2  0
 10  6  1  0
M  ISO  3   1   1   3   3  12   2
M  END
>  <symbol>  (538) 
D_cPenAla

>  <m_abbr>  (538) 
D_cPenAla

>  <m_name>  (538) 
D-Cyclopentylalanine

>  <m_type>  (538) 
aa

>  <m_subtype>  (538) 
modified

>  <m_Rgroups>  (538) 
[H],[OH],[H]

>  <m_chem_types>  (538) 
1:backbone_n,2:backbone_c,3:backbone_n_mod

>  <m_activation_policy>  (538) 
canonical-sites-v1

$$$$

     RDKit          2D

 19 19  0  0  0  0  0  0  0  0999 V2000
   -4.0277   -1.8231    0.0000 R   0  0  0  0  0  1  0  0  0  0  0  0
   -2.6611   -1.2045    0.0000 N   0  0  0  0  0  0  0  0  0  0  0  0
   -1.4422   -2.0787    0.0000 R   0  0  0  0  0  1  0  0  0  0  0  0
   -2.5135    0.2882    0.0000 C   0  0  0  0  0  0  0  0  0  0  0  0
   -1.1470    0.9067    0.0000 C   0  0  0  0  0  0  0  0  0  0  0  0
    0.0719    0.0326    0.0000 C   0  0  0  0  0  0  0  0  0  0  0  0
   -0.0757   -1.4602    0.0000 O   0  0  0  0  0  0  0  0  0  0  0  0
    1.4385    0.6511    0.0000 C   0  0  0  0  0  0  0  0  0  0  0  0
    1.5860    2.1438    0.0000 C   0  0  0  0  0  0  0  0  0  0  0  0
    2.9526    2.7624    0.0000 C   0  0  0  0  0  0  0  0  0  0  0  0
    4.1715    1.8882    0.0000 C   0  0  0  0  0  0  0  0  0  0  0  0
    4.0239    0.3955    0.0000 C   0  0  0  0  0  0  0  0  0  0  0  0
    2.6574   -0.2231    0.0000 C   0  0  0  0  0  0  0  0  0  0  0  0
    2.5098   -1.7158    0.0000 N   0  0  0  0  0  0  0  0  0  0  0  0
    3.7287   -2.5900    0.0000 R   0  0  0  0  0  1  0  0  0  0  0  0
    1.1433   -2.3343    0.0000 R   0  0  0  0  0  1  0  0  0  0  0  0
   -3.7325    1.1624    0.0000 C   0  0  0  0  0  0  0  0  0  0  0  0
   -5.0990    0.5438    0.0000 R   0  0  0  0  0  1  0  0  0  0  0  0
   -3.5849    2.6551    0.0000 O   0  0  0  0  0  0  0  0  0  0  0  0
  1  2  1  0
  2  3  1  0
  2  4  1  0
  4  5  1  1
  5  6  1  0
  6  7  2  0
  6  8  1  0
  8  9  2  0
  9 10  1  0
 10 11  2  0
 11 12  1  0
 12 13  2  0
 13 14  1  0
 14 15  1  0
 14 16  1  0
  4 17  1  0
 17 18  1  0
 17 19  2  0
 13  8  1  0
M  ISO  5   1   1   3   3  15   4  16   5  18   2
M  END
>  <symbol>  (539) 
D_Kyn

>  <m_abbr>  (539) 
D_Kyn

>  <m_name>  (539) 
D-Kynurenine

>  <m_type>  (539) 
aa

>  <m_subtype>  (539) 
modified

>  <m_Rgroups>  (539) 
[H],[OH],[H],[H],[H]

>  <m_chem_types>  (539) 
1:backbone_n,2:backbone_c,3:backbone_n_mod,4:amine_primary,5:amine_primary

>  <m_activation_policy>  (539) 
canonical-sites-v1

$$$$

     RDKit          2D

 18 18  0  0  0  0  0  0  0  0999 V2000
   -3.7898    2.0459    0.0000 R   0  0  0  0  0  1  0  0  0  0  0  0
   -2.5342    1.2253    0.0000 N   0  0  0  0  0  0  0  0  0  0  0  0
   -1.1957    1.9023    0.0000 R   0  0  0  0  0  1  0  0  0  0  0  0
   -2.6171   -0.2724    0.0000 C   0  0  0  0  0  0  0  0  0  0  0  0
   -1.3615   -1.0931    0.0000 C   0  0  0  0  0  0  0  0  0  0  0  0
   -0.0230   -0.4160    0.0000 C   0  0  0  0  0  0  0  0  0  0  0  0
    0.0599    1.0817    0.0000 C   0  0  0  0  0  0  0  0  0  0  0  0
    1.3984    1.7587    0.0000 C   0  0  0  0  0  0  0  0  0  0  0  0
    2.6540    0.9381    0.0000 C   0  0  0  0  0  0  0  0  0  0  0  0
    3.9925    1.6151    0.0000 O   0  0  0  0  0  0  0  0  0  0  0  0
    5.2481    0.7945    0.0000 R   0  0  0  0  0  1  0  0  0  0  0  0
    2.5711   -0.5596    0.0000 C   0  0  0  0  0  0  0  0  0  0  0  0
    3.8267   -1.3803    0.0000 O   0  0  0  0  0  0  0  0  0  0  0  0
    3.7438   -2.8780    0.0000 R   0  0  0  0  0  1  0  0  0  0  0  0
    1.2326   -1.2367    0.0000 C   0  0  0  0  0  0  0  0  0  0  0  0
   -3.9556   -0.9495    0.0000 C   0  0  0  0  0  0  0  0  0  0  0  0
   -5.2112   -0.1288    0.0000 R   0  0  0  0  0  1  0  0  0  0  0  0
   -4.0385   -2.4472    0.0000 O   0  0  0  0  0  0  0  0  0  0  0  0
  1  2  1  0
  2  3  1  0
  2  4  1  0
  4  5  1  6
  5  6  1  0
  6  7  1  0
  7  8  2  0
  8  9  1  0
  9 10  1  0
 10 11  1  0
  9 12  2  0
 12 13  1  0
 13 14  1  0
 12 15  1  0
  4 16  1  0
 16 17  1  0
 16 18  2  0
 15  6  2  0
M  ISO  5   1   1   3   3  11   4  14   5  17   2
M  END
>  <symbol>  (540) 
D_Dopa

>  <m_abbr>  (540) 
D_Dopa

>  <m_name>  (540) 
D-3,4-Dihydroxyphenylalanine (D-DOPA)

>  <m_type>  (540) 
aa

>  <m_subtype>  (540) 
modified

>  <m_Rgroups>  (540) 
[H],[OH],[H],[H],[H]

>  <m_chem_types>  (540) 
1:backbone_n,2:backbone_c,3:backbone_n_mod,4:aryl_phenol_o,5:aryl_phenol_o

>  <m_activation_policy>  (540) 
canonical-sites-v1

$$$$

     RDKit          2D

 12 11  0  0  0  0  0  0  0  0999 V2000
   -2.5969   -1.8514    0.0000 R   0  0  0  0  0  1  0  0  0  0  0  0
   -1.1525   -1.4469    0.0000 N   0  0  0  0  0  0  0  0  0  0  0  0
   -0.0800   -2.4956    0.0000 R   0  0  0  0  0  1  0  0  0  0  0  0
   -0.7806    0.0062    0.0000 C   0  0  0  0  0  0  0  0  0  0  0  0
   -1.8531    1.0549    0.0000 C   0  0  0  0  0  0  0  0  0  0  0  0
   -1.4812    2.5081    0.0000 R   0  0  0  0  0  1  0  0  0  0  0  0
   -3.2976    0.6504    0.0000 O   0  0  0  0  0  0  0  0  0  0  0  0
    0.6638    0.4107    0.0000 C   0  0  0  0  0  0  0  0  0  0  0  0
    1.0357    1.8639    0.0000 R   0  0  0  0  0  1  0  0  0  0  0  0
    1.7364   -0.6379    0.0000 N   0  0  0  0  0  0  0  0  0  0  0  0
    3.1808   -0.2334    0.0000 N   0  0  0  0  0  0  0  0  0  0  0  0
    4.6252    0.1711    0.0000 N   0  0  0  0  0  0  0  0  0  0  0  0
  1  2  1  0
  2  3  1  0
  2  4  1  0
  4  5  1  0
  5  6  1  0
  5  7  2  0
  4  8  1  1
  8  9  1  0
  8 10  1  0
 10 11  2  0
 11 12  2  0
M  CHG  2  11   1  12  -1
M  ISO  4   1   1   3   3   6   2   9   4
M  END
>  <symbol>  (541) 
D_AzAla

>  <m_abbr>  (541) 
D_AzAla

>  <m_name>  (541) 
D-Azidoalanine

>  <m_type>  (541) 
aa

>  <m_subtype>  (541) 
modified

>  <m_Rgroups>  (541) 
[H],[OH],[H],[H]

>  <m_chem_types>  (541) 
1:backbone_n,2:backbone_c,3:backbone_n_mod,4:azide_alpha_c

>  <m_activation_policy>  (541) 
canonical-sites-v1

$$$$

     RDKit          2D

 11 11  0  0  0  0  0  0  0  0999 V2000
   -1.4734    2.2350    0.0000 R   0  0  0  0  0  1  0  0  0  0  0  0
   -0.3337    1.2598    0.0000 N   0  0  0  0  0  0  0  0  0  0  0  0
    1.0807    1.7592    0.0000 R   0  0  0  0  0  1  0  0  0  0  0  0
   -0.6085   -0.2148    0.0000 C   0  0  0  0  0  0  0  0  0  0  0  0
    0.5312   -1.1901    0.0000 C   0  0  0  0  0  0  0  0  0  0  0  0
    1.9457   -0.6907    0.0000 C   0  0  0  0  0  0  0  0  0  0  0  0
    3.4203   -0.9654    0.0000 C   0  0  0  0  0  0  0  0  0  0  0  0
    2.9209    0.4490    0.0000 C   0  0  0  0  0  0  0  0  0  0  0  0
   -2.0229   -0.7142    0.0000 C   0  0  0  0  0  0  0  0  0  0  0  0
   -3.1626    0.2610    0.0000 R   0  0  0  0  0  1  0  0  0  0  0  0
   -2.2976   -2.1888    0.0000 O   0  0  0  0  0  0  0  0  0  0  0  0
  1  2  1  0
  2  3  1  0
  2  4  1  0
  4  5  1  6
  5  6  1  0
  6  7  1  0
  7  8  1  0
  4  9  1  0
  9 10  1  0
  9 11  2  0
  8  6  1  0
M  ISO  3   1   1   3   3  10   2
M  END
>  <symbol>  (542) 
D_CyoAla

>  <m_abbr>  (542) 
D_CyoAla

>  <m_name>  (542) 
D-Cyclopropylalanine

>  <m_type>  (542) 
aa

>  <m_subtype>  (542) 
modified

>  <m_Rgroups>  (542) 
[H],[OH],[H]

>  <m_chem_types>  (542) 
1:backbone_n,2:backbone_c,3:backbone_n_mod

>  <m_activation_policy>  (542) 
canonical-sites-v1

$$$$

     RDKit          2D

 13 13  0  0  0  0  0  0  0  0999 V2000
   -2.0806    2.2134    0.0000 R   0  0  0  0  0  1  0  0  0  0  0  0
   -0.9264    1.2554    0.0000 N   0  0  0  0  0  0  0  0  0  0  0  0
    0.4804    1.7760    0.0000 R   0  0  0  0  0  1  0  0  0  0  0  0
   -1.1789   -0.2232    0.0000 C   0  0  0  0  0  0  0  0  0  0  0  0
   -0.0246   -1.1812    0.0000 C   0  0  0  0  0  0  0  0  0  0  0  0
    1.3821   -0.6606    0.0000 C   0  0  0  0  0  0  0  0  0  0  0  0
    2.6302   -1.4926    0.0000 N   0  0  0  0  0  0  0  0  0  0  0  0
    3.8072   -0.5628    0.0000 C   0  0  0  0  0  0  0  0  0  0  0  0
    3.2866    0.8440    0.0000 C   0  0  0  0  0  0  0  0  0  0  0  0
    1.7878    0.7835    0.0000 S   0  0  0  0  0  0  0  0  0  0  0  0
   -2.5856   -0.7438    0.0000 C   0  0  0  0  0  0  0  0  0  0  0  0
   -3.7399    0.2142    0.0000 R   0  0  0  0  0  1  0  0  0  0  0  0
   -2.8382   -2.2224    0.0000 O   0  0  0  0  0  0  0  0  0  0  0  0
  1  2  1  0
  2  3  1  0
  2  4  1  0
  4  5  1  6
  5  6  1  0
  6  7  2  0
  7  8  1  0
  8  9  2  0
  9 10  1  0
  4 11  1  0
 11 12  1  0
 11 13  2  0
 10  6  1  0
M  ISO  3   1   1   3   3  12   2
M  END
>  <symbol>  (543) 
D_Thz2Ala

>  <m_abbr>  (543) 
D_Thz2Ala

>  <m_name>  (543) 
D-2-(Thiazolyl)alanine

>  <m_type>  (543) 
aa

>  <m_subtype>  (543) 
modified

>  <m_Rgroups>  (543) 
[H],[OH],[H]

>  <m_chem_types>  (543) 
1:backbone_n,2:backbone_c,3:backbone_n_mod

>  <m_activation_policy>  (543) 
canonical-sites-v1

$$$$

     RDKit          2D

 14 14  0  0  0  0  0  0  0  0999 V2000
   -2.1032    2.3401    0.0000 R   0  0  0  0  0  1  0  0  0  0  0  0
   -1.0754    1.2476    0.0000 N   0  0  0  0  0  0  0  0  0  0  0  0
    0.3847    1.5914    0.0000 R   0  0  0  0  0  1  0  0  0  0  0  0
   -1.5077   -0.1888    0.0000 C   0  0  0  0  0  0  0  0  0  0  0  0
   -0.4799   -1.2813    0.0000 C   0  0  0  0  0  0  0  0  0  0  0  0
    0.9801   -0.9375    0.0000 C   0  0  0  0  0  0  0  0  0  0  0  0
    2.1165   -1.9167    0.0000 C   0  0  0  0  0  0  0  0  0  0  0  0
    3.3989   -1.1385    0.0000 C   0  0  0  0  0  0  0  0  0  0  0  0
    3.0551    0.3216    0.0000 N   0  0  0  0  0  0  0  0  0  0  0  0
    4.0342    1.4579    0.0000 R   0  0  0  0  0  1  0  0  0  0  0  0
    1.5602    0.4458    0.0000 N   0  0  0  0  0  0  0  0  0  0  0  0
   -2.9678   -0.5326    0.0000 C   0  0  0  0  0  0  0  0  0  0  0  0
   -3.9955    0.5600    0.0000 R   0  0  0  0  0  1  0  0  0  0  0  0
   -3.4001   -1.9689    0.0000 O   0  0  0  0  0  0  0  0  0  0  0  0
  1  2  1  0
  2  3  1  0
  2  4  1  0
  4  5  1  6
  5  6  1  0
  6  7  1  0
  7  8  2  0
  8  9  1  0
  9 10  1  0
  9 11  1  0
  4 12  1  0
 12 13  1  0
 12 14  2  0
 11  6  2  0
M  ISO  4   1   1   3   3  10   4  13   2
M  END
>  <symbol>  (544) 
D_Pyz3Ala

>  <m_abbr>  (544) 
D_Pyz3Ala

>  <m_name>  (544) 
D-3-(Pyrazolyl)alanine

>  <m_type>  (544) 
aa

>  <m_subtype>  (544) 
modified

>  <m_Rgroups>  (544) 
[H],[OH],[H],[H]

>  <m_chem_types>  (544) 
1:backbone_n,2:backbone_c,3:backbone_n_mod,4:aromatic_nh

>  <m_activation_policy>  (544) 
canonical-sites-v1

$$$$

     RDKit          2D

 14 14  0  0  0  0  0  0  0  0999 V2000
   -2.5982    2.0750    0.0000 R   0  0  0  0  0  1  0  0  0  0  0  0
   -1.3182    1.2930    0.0000 N   0  0  0  0  0  0  0  0  0  0  0  0
   -0.0009    2.0105    0.0000 R   0  0  0  0  0  1  0  0  0  0  0  0
   -1.3555   -0.2066    0.0000 C   0  0  0  0  0  0  0  0  0  0  0  0
   -0.0755   -0.9886    0.0000 C   0  0  0  0  0  0  0  0  0  0  0  0
    1.2418   -0.2711    0.0000 C   0  0  0  0  0  0  0  0  0  0  0  0
    1.4356    1.2163    0.0000 N   0  0  0  0  0  0  0  0  0  0  0  0
    2.9102    1.4916    0.0000 C   0  0  0  0  0  0  0  0  0  0  0  0
    3.6276    0.1743    0.0000 C   0  0  0  0  0  0  0  0  0  0  0  0
    2.5966   -0.9151    0.0000 N   0  0  0  0  0  0  0  0  0  0  0  0
    2.8719   -2.3896    0.0000 R   0  0  0  0  0  1  0  0  0  0  0  0
   -2.6727   -0.9241    0.0000 C   0  0  0  0  0  0  0  0  0  0  0  0
   -3.9527   -0.1420    0.0000 R   0  0  0  0  0  1  0  0  0  0  0  0
   -2.7100   -2.4236    0.0000 O   0  0  0  0  0  0  0  0  0  0  0  0
  1  2  1  0
  2  3  1  0
  2  4  1  0
  4  5  1  6
  5  6  1  0
  6  7  2  0
  7  8  1  0
  8  9  2  0
  9 10  1  0
 10 11  1  0
  4 12  1  0
 12 13  1  0
 12 14  2  0
 10  6  1  0
M  ISO  4   1   1   3   3  11   4  13   2
M  END
>  <symbol>  (545) 
D_Im2Ala

>  <m_abbr>  (545) 
D_Im2Ala

>  <m_name>  (545) 
D-2-(Imidazolyl)alanine

>  <m_type>  (545) 
aa

>  <m_subtype>  (545) 
modified

>  <m_Rgroups>  (545) 
[H],[OH],[H],[H]

>  <m_chem_types>  (545) 
1:backbone_n,2:backbone_c,3:backbone_n_mod,4:aromatic_nh

>  <m_activation_policy>  (545) 
canonical-sites-v1

$$$$

     RDKit          2D

 30 31  0  0  0  0  0  0  0  0999 V2000
   -5.8773    3.8754    0.0000 R   0  0  0  0  0  1  0  0  0  0  0  0
   -5.3903    2.4566    0.0000 N   0  0  0  0  0  0  0  0  0  0  0  0
   -3.9182    2.1689    0.0000 R   0  0  0  0  0  1  0  0  0  0  0  0
   -6.3755    1.3255    0.0000 C   0  0  0  0  0  0  0  0  0  0  0  0
   -5.8886   -0.0932    0.0000 C   0  0  0  0  0  0  0  0  0  0  0  0
   -4.4164   -0.3809    0.0000 C   0  0  0  0  0  0  0  0  0  0  0  0
   -3.9295   -1.7997    0.0000 C   0  0  0  0  0  0  0  0  0  0  0  0
   -2.4573   -2.0874    0.0000 C   0  0  0  0  0  0  0  0  0  0  0  0
   -1.9704   -3.5061    0.0000 N   0  0  0  0  0  0  0  0  0  0  0  0
   -2.9556   -4.6372    0.0000 R   0  0  0  0  0  1  0  0  0  0  0  0
   -0.4982   -3.7938    0.0000 C   0  0  0  0  0  0  0  0  0  0  0  0
   -0.0113   -5.2126    0.0000 O   0  0  0  0  0  0  0  0  0  0  0  0
    0.4870   -2.6627    0.0000 C   0  0  0  0  0  0  0  0  0  0  0  0
    1.9591   -2.9504    0.0000 C   0  0  0  0  0  0  0  0  0  0  0  0
    2.9443   -1.8193    0.0000 C   0  0  0  0  0  0  0  0  0  0  0  0
    4.4165   -2.1070    0.0000 C   0  0  0  0  0  0  0  0  0  0  0  0
    5.4017   -0.9759    0.0000 C   0  0  0  0  0  0  0  0  0  0  0  0
    6.8959   -1.1081    0.0000 S   0  0  0  0  0  0  0  0  0  0  0  0
    7.4833    0.2721    0.0000 C   0  0  0  0  0  0  0  0  0  0  0  0
    6.3523    1.2573    0.0000 C   0  0  0  0  0  0  0  0  0  0  0  0
    5.0657    0.4860    0.0000 C   0  0  0  0  0  0  0  0  0  0  0  0
    3.9346    1.4712    0.0000 N   0  0  0  0  0  0  0  0  0  0  0  0
    2.4728    1.1352    0.0000 R   0  0  0  0  0  1  0  0  0  0  0  0
    4.5221    2.8514    0.0000 C   0  0  0  0  0  0  0  0  0  0  0  0
    3.7508    4.1379    0.0000 O   0  0  0  0  0  0  0  0  0  0  0  0
    6.0163    2.7192    0.0000 N   0  0  0  0  0  0  0  0  0  0  0  0
    7.0015    3.8503    0.0000 R   0  0  0  0  0  1  0  0  0  0  0  0
   -7.8477    1.6132    0.0000 C   0  0  0  0  0  0  0  0  0  0  0  0
   -8.3346    3.0320    0.0000 R   0  0  0  0  0  1  0  0  0  0  0  0
   -8.8329    0.4821    0.0000 O   0  0  0  0  0  0  0  0  0  0  0  0
  1  2  1  0
  2  3  1  0
  2  4  1  0
  4  5  1  6
  5  6  1  0
  6  7  1  0
  7  8  1  0
  8  9  1  0
  9 10  1  0
  9 11  1  0
 11 12  2  0
 11 13  1  0
 13 14  1  0
 14 15  1  0
 15 16  1  0
 16 17  1  0
 17 18  1  0
 18 19  1  0
 19 20  1  0
 20 21  1  0
 21 22  1  0
 22 23  1  0
 22 24  1  0
 24 25  2  0
 24 26  1  0
 26 27  1  0
  4 28  1  0
 28 29  1  0
 28 30  2  0
 21 17  1  0
 26 20  1  0
M  ISO  6   1   1   3   3  10   6  23   5  27   4  29   2
M  END
>  <symbol>  (546) 
D_BiotinLys

>  <m_abbr>  (546) 
D_BiotinLys

>  <m_name>  (546) 
N-epsilon-biotinyl-D-lysine

>  <m_type>  (546) 
aa

>  <m_subtype>  (546) 
modified

>  <m_Rgroups>  (546) 
[H],[OH],[H],[H],[H],[H]

>  <m_chem_types>  (546) 
1:backbone_n,2:backbone_c,3:backbone_n_mod,4:urea_nh,5:urea_nh,6:amide_nh

>  <m_activation_policy>  (546) 
canonical-sites-v1

$$$$

     RDKit          2D

 15 14  0  0  0  0  0  0  0  0999 V2000
   -5.1929   -0.2083    0.0000 R   0  0  0  0  0  1  0  0  0  0  0  0
   -3.8786   -0.9310    0.0000 N   0  0  0  0  0  0  0  0  0  0  0  0
   -3.8473   -2.4307    0.0000 R   0  0  0  0  0  1  0  0  0  0  0  0
   -2.5954   -0.1541    0.0000 C   0  0  0  0  0  0  0  0  0  0  0  0
   -1.2810   -0.8769    0.0000 C   0  0  0  0  0  0  0  0  0  0  0  0
    0.0021   -0.1000    0.0000 C   0  0  0  0  0  0  0  0  0  0  0  0
    1.3165   -0.8227    0.0000 C   0  0  0  0  0  0  0  0  0  0  0  0
    2.5996   -0.0458    0.0000 C   0  0  0  0  0  0  0  0  0  0  0  0
    3.9140   -0.7686    0.0000 C   0  0  0  0  0  0  0  0  0  0  0  0
    5.1971    0.0083    0.0000 N   0  0  0  0  0  0  0  0  0  0  0  0
    6.5115   -0.7145    0.0000 R   0  0  0  0  0  1  0  0  0  0  0  0
    5.1659    1.5080    0.0000 R   0  0  0  0  0  1  0  0  0  0  0  0
   -2.6267    1.3456    0.0000 C   0  0  0  0  0  0  0  0  0  0  0  0
   -1.3436    2.1225    0.0000 R   0  0  0  0  0  1  0  0  0  0  0  0
   -3.9411    2.0683    0.0000 O   0  0  0  0  0  0  0  0  0  0  0  0
  1  2  1  0
  2  3  1  0
  2  4  1  0
  4  5  1  1
  5  6  1  0
  6  7  1  0
  7  8  1  0
  8  9  1  0
  9 10  1  0
 10 11  1  0
 10 12  1  0
  4 13  1  0
 13 14  1  0
 13 15  2  0
M  ISO  5   1   1   3   3  11   4  12   5  14   2
M  END
>  <symbol>  (547) 
D_hLys

>  <m_abbr>  (547) 
D_hLys

>  <m_name>  (547) 
D-Homolysine

>  <m_type>  (547) 
aa

>  <m_subtype>  (547) 
modified

>  <m_Rgroups>  (547) 
[H],[OH],[H],[H],[H]

>  <m_chem_types>  (547) 
1:backbone_n,2:backbone_c,3:backbone_n_mod,4:amine_primary,5:amine_primary

>  <m_activation_policy>  (547) 
canonical-sites-v1

$$$$

     RDKit          2D

 16 15  0  0  0  0  0  0  0  0999 V2000
   -5.7510   -0.4178    0.0000 R   0  0  0  0  0  1  0  0  0  0  0  0
   -4.3855   -1.0386    0.0000 N   0  0  0  0  0  0  0  0  0  0  0  0
   -4.2404   -2.5315    0.0000 R   0  0  0  0  0  1  0  0  0  0  0  0
   -3.1652   -0.1664    0.0000 C   0  0  0  0  0  0  0  0  0  0  0  0
   -1.7996   -0.7872    0.0000 C   0  0  0  0  0  0  0  0  0  0  0  0
   -0.5793    0.0850    0.0000 C   0  0  0  0  0  0  0  0  0  0  0  0
    0.7862   -0.5358    0.0000 C   0  0  0  0  0  0  0  0  0  0  0  0
    2.0066    0.3363    0.0000 C   0  0  0  0  0  0  0  0  0  0  0  0
    3.3721   -0.2844    0.0000 C   0  0  0  0  0  0  0  0  0  0  0  0
    4.5925    0.5877    0.0000 C   0  0  0  0  0  0  0  0  0  0  0  0
    5.9580   -0.0331    0.0000 N   0  0  0  0  0  0  0  0  0  0  0  0
    7.1784    0.8391    0.0000 R   0  0  0  0  0  1  0  0  0  0  0  0
    6.1031   -1.5260    0.0000 R   0  0  0  0  0  1  0  0  0  0  0  0
   -3.3103    1.3266    0.0000 C   0  0  0  0  0  0  0  0  0  0  0  0
   -2.0899    2.1987    0.0000 R   0  0  0  0  0  1  0  0  0  0  0  0
   -4.6758    1.9474    0.0000 O   0  0  0  0  0  0  0  0  0  0  0  0
  1  2  1  0
  2  3  1  0
  2  4  1  0
  4  5  1  1
  5  6  1  0
  6  7  1  0
  7  8  1  0
  8  9  1  0
  9 10  1  0
 10 11  1  0
 11 12  1  0
 11 13  1  0
  4 14  1  0
 14 15  1  0
 14 16  2  0
M  ISO  5   1   1   3   3  12   4  13   5  15   2
M  END
>  <symbol>  (548) 
D_Dao

>  <m_abbr>  (548) 
D_Dao

>  <m_name>  (548) 
D-2,8-Diaminooctanoic acid

>  <m_type>  (548) 
aa

>  <m_subtype>  (548) 
modified

>  <m_Rgroups>  (548) 
[H],[OH],[H],[H],[H]

>  <m_chem_types>  (548) 
1:backbone_n,2:backbone_c,3:backbone_n_mod,4:amine_primary,5:amine_primary

>  <m_activation_policy>  (548) 
canonical-sites-v1

$$$$

     RDKit          2D

 17 17  0  0  0  0  0  0  0  0999 V2000
   -3.5375    2.1462    0.0000 R   0  0  0  0  0  1  0  0  0  0  0  0
   -2.3664    1.2089    0.0000 N   0  0  0  0  0  0  0  0  0  0  0  0
   -0.9692    1.7544    0.0000 R   0  0  0  0  0  1  0  0  0  0  0  0
   -2.5926   -0.2740    0.0000 C   0  0  0  0  0  0  0  0  0  0  0  0
   -1.4215   -1.2113    0.0000 C   0  0  0  0  0  0  0  0  0  0  0  0
   -0.0242   -0.6657    0.0000 C   0  0  0  0  0  0  0  0  0  0  0  0
    0.2019    0.8171    0.0000 C   0  0  0  0  0  0  0  0  0  0  0  0
    1.5992    1.3627    0.0000 C   0  0  0  0  0  0  0  0  0  0  0  0
    2.7703    0.4254    0.0000 C   0  0  0  0  0  0  0  0  0  0  0  0
    4.1676    0.9709    0.0000 N   0  0  0  0  0  0  0  0  0  0  0  0
    5.3387    0.0336    0.0000 N   0  0  0  0  0  0  0  0  0  0  0  0
    6.5098   -0.9037    0.0000 N   0  0  0  0  0  0  0  0  0  0  0  0
    2.5441   -1.0575    0.0000 C   0  0  0  0  0  0  0  0  0  0  0  0
    1.1468   -1.6030    0.0000 C   0  0  0  0  0  0  0  0  0  0  0  0
   -3.9899   -0.8195    0.0000 C   0  0  0  0  0  0  0  0  0  0  0  0
   -5.1610    0.1178    0.0000 R   0  0  0  0  0  1  0  0  0  0  0  0
   -4.2161   -2.3023    0.0000 O   0  0  0  0  0  0  0  0  0  0  0  0
  1  2  1  0
  2  3  1  0
  2  4  1  0
  4  5  1  6
  5  6  1  0
  6  7  1  0
  7  8  2  0
  8  9  1  0
  9 10  1  0
 10 11  2  0
 11 12  2  0
  9 13  2  0
 13 14  1  0
  4 15  1  0
 15 16  1  0
 15 17  2  0
 14  6  2  0
M  CHG  2  11   1  12  -1
M  ISO  3   1   1   3   3  16   2
M  END
>  <symbol>  (549) 
D_Phe_4Az

>  <m_abbr>  (549) 
D_Phe_4Az

>  <m_name>  (549) 
D-para-Azidophenylalanine

>  <m_type>  (549) 
aa

>  <m_subtype>  (549) 
modified

>  <m_Rgroups>  (549) 
[H],[OH],[H]

>  <m_chem_types>  (549) 
1:backbone_n,2:backbone_c,3:backbone_n_mod

>  <m_activation_policy>  (549) 
canonical-sites-v1

$$$$

     RDKit          2D

 17 18  0  0  0  0  0  0  0  0999 V2000
    2.6882   -2.4321    0.0000 R   0  0  0  0  0  1  0  0  0  0  0  0
    1.7608   -1.2531    0.0000 N   0  0  0  0  0  0  0  0  0  0  0  0
    0.2761   -1.4667    0.0000 R   0  0  0  0  0  1  0  0  0  0  0  0
    2.3182    0.1395    0.0000 C   0  0  0  0  0  0  0  0  0  0  0  0
    1.3908    1.3185    0.0000 C   0  0  0  0  0  0  0  0  0  0  0  0
   -0.0939    1.1049    0.0000 C   0  0  0  0  0  0  0  0  0  0  0  0
   -1.0212    2.2839    0.0000 C   0  0  0  0  0  0  0  0  0  0  0  0
   -2.5060    2.0703    0.0000 C   0  0  0  0  0  0  0  0  0  0  0  0
   -3.0633    0.6776    0.0000 C   0  0  0  0  0  0  0  0  0  0  0  0
   -2.1360   -0.5013    0.0000 C   0  0  0  0  0  0  0  0  0  0  0  0
   -0.6513   -0.2877    0.0000 C   0  0  0  0  0  0  0  0  0  0  0  0
   -2.9707   -1.7476    0.0000 O   0  0  0  0  0  0  0  0  0  0  0  0
   -4.4139   -1.3389    0.0000 C   0  0  0  0  0  0  0  0  0  0  0  0
   -4.4712    0.1600    0.0000 O   0  0  0  0  0  0  0  0  0  0  0  0
    3.8029    0.3531    0.0000 C   0  0  0  0  0  0  0  0  0  0  0  0
    4.7302   -0.8259    0.0000 R   0  0  0  0  0  1  0  0  0  0  0  0
    4.3602    1.7457    0.0000 O   0  0  0  0  0  0  0  0  0  0  0  0
  1  2  1  0
  2  3  1  0
  2  4  1  0
  4  5  1  1
  5  6  1  0
  6  7  1  0
  7  8  2  0
  8  9  1  0
  9 10  2  0
 10 11  1  0
 10 12  1  0
 12 13  1  0
 13 14  1  0
  4 15  1  0
 15 16  1  0
 15 17  2  0
 11  6  2  0
 14  9  1  0
M  ISO  3   1   1   3   3  16   2
M  END
>  <symbol>  (550) 
PipAla

>  <m_abbr>  (550) 
PipAla

>  <m_name>  (550) 
L-Piperonylalanine (3,4-methylenedioxy-Phe)

>  <m_type>  (550) 
aa

>  <m_subtype>  (550) 
modified

>  <m_Rgroups>  (550) 
[H],[OH],[H]

>  <m_chem_types>  (550) 
1:backbone_n,2:backbone_c,3:backbone_n_mod

>  <m_activation_policy>  (550) 
canonical-sites-v1

$$$$

     RDKit          2D

 17 17  0  0  0  0  0  0  0  0999 V2000
   -3.1584    2.3389    0.0000 R   0  0  0  0  0  1  0  0  0  0  0  0
   -2.1065    1.2696    0.0000 N   0  0  0  0  0  0  0  0  0  0  0  0
   -0.6545    1.6460    0.0000 R   0  0  0  0  0  1  0  0  0  0  0  0
   -2.5066   -0.1760    0.0000 C   0  0  0  0  0  0  0  0  0  0  0  0
   -1.4547   -1.2454    0.0000 C   0  0  0  0  0  0  0  0  0  0  0  0
   -0.0026   -0.8690    0.0000 C   0  0  0  0  0  0  0  0  0  0  0  0
    0.3974    0.5766    0.0000 C   0  0  0  0  0  0  0  0  0  0  0  0
    1.8495    0.9530    0.0000 C   0  0  0  0  0  0  0  0  0  0  0  0
    2.9014   -0.1163    0.0000 C   0  0  0  0  0  0  0  0  0  0  0  0
    4.3534    0.2600    0.0000 N   0  0  0  0  0  0  0  0  0  0  0  0
    5.4054   -0.8093    0.0000 C   0  0  0  0  0  0  0  0  0  0  0  0
    4.7535    1.7057    0.0000 C   0  0  0  0  0  0  0  0  0  0  0  0
    2.5013   -1.5620    0.0000 C   0  0  0  0  0  0  0  0  0  0  0  0
    1.0493   -1.9383    0.0000 C   0  0  0  0  0  0  0  0  0  0  0  0
   -3.9586   -0.5524    0.0000 C   0  0  0  0  0  0  0  0  0  0  0  0
   -5.0106    0.5169    0.0000 R   0  0  0  0  0  1  0  0  0  0  0  0
   -4.3587   -1.9980    0.0000 O   0  0  0  0  0  0  0  0  0  0  0  0
  1  2  1  0
  2  3  1  0
  2  4  1  0
  4  5  1  1
  5  6  1  0
  6  7  1  0
  7  8  2  0
  8  9  1  0
  9 10  1  0
 10 11  1  0
 10 12  1  0
  9 13  2  0
 13 14  1  0
  4 15  1  0
 15 16  1  0
 15 17  2  0
 14  6  2  0
M  ISO  3   1   1   3   3  16   2
M  END
>  <symbol>  (551) 
Phe_4NMe2

>  <m_abbr>  (551) 
Phe_4NMe2

>  <m_name>  (551) 
L-4-(Dimethylamino)phenylalanine

>  <m_type>  (551) 
aa

>  <m_subtype>  (551) 
modified

>  <m_Rgroups>  (551) 
[H],[OH],[H]

>  <m_chem_types>  (551) 
1:backbone_n,2:backbone_c,3:backbone_n_mod

>  <m_activation_policy>  (551) 
canonical-sites-v1

$$$$

     RDKit          2D

 17 17  0  0  0  0  0  0  0  0999 V2000
   -3.1584    2.3389    0.0000 R   0  0  0  0  0  1  0  0  0  0  0  0
   -2.1065    1.2696    0.0000 N   0  0  0  0  0  0  0  0  0  0  0  0
   -0.6545    1.6460    0.0000 R   0  0  0  0  0  1  0  0  0  0  0  0
   -2.5066   -0.1760    0.0000 C   0  0  0  0  0  0  0  0  0  0  0  0
   -1.4547   -1.2454    0.0000 C   0  0  0  0  0  0  0  0  0  0  0  0
   -0.0026   -0.8690    0.0000 C   0  0  0  0  0  0  0  0  0  0  0  0
    0.3974    0.5766    0.0000 C   0  0  0  0  0  0  0  0  0  0  0  0
    1.8495    0.9530    0.0000 C   0  0  0  0  0  0  0  0  0  0  0  0
    2.9014   -0.1163    0.0000 C   0  0  0  0  0  0  0  0  0  0  0  0
    4.3534    0.2600    0.0000 C   0  0  0  0  0  0  0  0  0  0  0  0
    5.4054   -0.8093    0.0000 C   0  0  0  0  0  0  0  0  0  0  0  0
    4.7535    1.7057    0.0000 C   0  0  0  0  0  0  0  0  0  0  0  0
    2.5013   -1.5620    0.0000 C   0  0  0  0  0  0  0  0  0  0  0  0
    1.0493   -1.9383    0.0000 C   0  0  0  0  0  0  0  0  0  0  0  0
   -3.9586   -0.5524    0.0000 C   0  0  0  0  0  0  0  0  0  0  0  0
   -5.0106    0.5169    0.0000 R   0  0  0  0  0  1  0  0  0  0  0  0
   -4.3587   -1.9980    0.0000 O   0  0  0  0  0  0  0  0  0  0  0  0
  1  2  1  0
  2  3  1  0
  2  4  1  0
  4  5  1  1
  5  6  1  0
  6  7  1  0
  7  8  2  0
  8  9  1  0
  9 10  1  0
 10 11  1  0
 10 12  1  0
  9 13  2  0
 13 14  1  0
  4 15  1  0
 15 16  1  0
 15 17  2  0
 14  6  2  0
M  ISO  3   1   1   3   3  16   2
M  END
>  <symbol>  (552) 
Phe_4iPr

>  <m_abbr>  (552) 
Phe_4iPr

>  <m_name>  (552) 
L-4-Isopropylphenylalanine

>  <m_type>  (552) 
aa

>  <m_subtype>  (552) 
modified

>  <m_Rgroups>  (552) 
[H],[OH],[H]

>  <m_chem_types>  (552) 
1:backbone_n,2:backbone_c,3:backbone_n_mod

>  <m_activation_policy>  (552) 
canonical-sites-v1

$$$$

     RDKit          2D

 18 18  0  0  0  0  0  0  0  0999 V2000
   -3.7898    2.0459    0.0000 R   0  0  0  0  0  1  0  0  0  0  0  0
   -2.5342    1.2253    0.0000 N   0  0  0  0  0  0  0  0  0  0  0  0
   -1.1957    1.9023    0.0000 R   0  0  0  0  0  1  0  0  0  0  0  0
   -2.6171   -0.2724    0.0000 C   0  0  0  0  0  0  0  0  0  0  0  0
   -1.3615   -1.0931    0.0000 C   0  0  0  0  0  0  0  0  0  0  0  0
   -0.0230   -0.4160    0.0000 C   0  0  0  0  0  0  0  0  0  0  0  0
    0.0599    1.0817    0.0000 C   0  0  0  0  0  0  0  0  0  0  0  0
    1.3984    1.7587    0.0000 C   0  0  0  0  0  0  0  0  0  0  0  0
    2.6540    0.9381    0.0000 C   0  0  0  0  0  0  0  0  0  0  0  0
    3.9925    1.6151    0.0000 O   0  0  0  0  0  0  0  0  0  0  0  0
    5.2481    0.7945    0.0000 C   0  0  0  0  0  0  0  0  0  0  0  0
    2.5711   -0.5596    0.0000 C   0  0  0  0  0  0  0  0  0  0  0  0
    3.8267   -1.3803    0.0000 O   0  0  0  0  0  0  0  0  0  0  0  0
    3.7438   -2.8780    0.0000 C   0  0  0  0  0  0  0  0  0  0  0  0
    1.2326   -1.2367    0.0000 C   0  0  0  0  0  0  0  0  0  0  0  0
   -3.9556   -0.9495    0.0000 C   0  0  0  0  0  0  0  0  0  0  0  0
   -5.2112   -0.1288    0.0000 R   0  0  0  0  0  1  0  0  0  0  0  0
   -4.0385   -2.4472    0.0000 O   0  0  0  0  0  0  0  0  0  0  0  0
  1  2  1  0
  2  3  1  0
  2  4  1  0
  4  5  1  1
  5  6  1  0
  6  7  1  0
  7  8  2  0
  8  9  1  0
  9 10  1  0
 10 11  1  0
  9 12  2  0
 12 13  1  0
 13 14  1  0
 12 15  1  0
  4 16  1  0
 16 17  1  0
 16 18  2  0
 15  6  2  0
M  ISO  3   1   1   3   3  17   2
M  END
>  <symbol>  (553) 
Phe_34diOMe

>  <m_abbr>  (553) 
Phe_34diOMe

>  <m_name>  (553) 
L-3,4-Dimethoxyphenylalanine

>  <m_type>  (553) 
aa

>  <m_subtype>  (553) 
modified

>  <m_Rgroups>  (553) 
[H],[OH],[H]

>  <m_chem_types>  (553) 
1:backbone_n,2:backbone_c,3:backbone_n_mod

>  <m_activation_policy>  (553) 
canonical-sites-v1

$$$$

     RDKit          2D

 16 16  0  0  0  0  0  0  0  0999 V2000
   -3.0227    2.2431    0.0000 R   0  0  0  0  0  1  0  0  0  0  0  0
   -1.8997    1.2486    0.0000 N   0  0  0  0  0  0  0  0  0  0  0  0
   -0.4770    1.7239    0.0000 R   0  0  0  0  0  1  0  0  0  0  0  0
   -2.1995   -0.2211    0.0000 C   0  0  0  0  0  0  0  0  0  0  0  0
   -1.0766   -1.2156    0.0000 C   0  0  0  0  0  0  0  0  0  0  0  0
    0.3462   -0.7404    0.0000 C   0  0  0  0  0  0  0  0  0  0  0  0
    0.6459    0.7294    0.0000 C   0  0  0  0  0  0  0  0  0  0  0  0
    2.0687    1.2046    0.0000 C   0  0  0  0  0  0  0  0  0  0  0  0
    3.1916    0.2101    0.0000 C   0  0  0  0  0  0  0  0  0  0  0  0
    4.6143    0.6854    0.0000 S   0  0  0  0  0  0  0  0  0  0  0  0
    5.7373   -0.3091    0.0000 C   0  0  0  0  0  0  0  0  0  0  0  0
    2.8918   -1.2596    0.0000 C   0  0  0  0  0  0  0  0  0  0  0  0
    1.4691   -1.7348    0.0000 C   0  0  0  0  0  0  0  0  0  0  0  0
   -3.6222   -0.6964    0.0000 C   0  0  0  0  0  0  0  0  0  0  0  0
   -4.7452    0.2981    0.0000 R   0  0  0  0  0  1  0  0  0  0  0  0
   -3.9220   -2.1661    0.0000 O   0  0  0  0  0  0  0  0  0  0  0  0
  1  2  1  0
  2  3  1  0
  2  4  1  0
  4  5  1  1
  5  6  1  0
  6  7  1  0
  7  8  2  0
  8  9  1  0
  9 10  1  0
 10 11  1  0
  9 12  2  0
 12 13  1  0
  4 14  1  0
 14 15  1  0
 14 16  2  0
 13  6  2  0
M  ISO  3   1   1   3   3  15   2
M  END
>  <symbol>  (554) 
Phe_4SMe

>  <m_abbr>  (554) 
Phe_4SMe

>  <m_name>  (554) 
L-4-(Methylthio)phenylalanine

>  <m_type>  (554) 
aa

>  <m_subtype>  (554) 
modified

>  <m_Rgroups>  (554) 
[H],[OH],[H]

>  <m_chem_types>  (554) 
1:backbone_n,2:backbone_c,3:backbone_n_mod

>  <m_activation_policy>  (554) 
canonical-sites-v1

$$$$

     RDKit          2D

 17 18  0  0  0  0  0  0  0  0999 V2000
    2.6882   -2.4321    0.0000 R   0  0  0  0  0  1  0  0  0  0  0  0
    1.7608   -1.2531    0.0000 N   0  0  0  0  0  0  0  0  0  0  0  0
    0.2761   -1.4667    0.0000 R   0  0  0  0  0  1  0  0  0  0  0  0
    2.3182    0.1395    0.0000 C   0  0  0  0  0  0  0  0  0  0  0  0
    1.3908    1.3185    0.0000 C   0  0  0  0  0  0  0  0  0  0  0  0
   -0.0939    1.1049    0.0000 C   0  0  0  0  0  0  0  0  0  0  0  0
   -1.0212    2.2839    0.0000 C   0  0  0  0  0  0  0  0  0  0  0  0
   -2.5060    2.0703    0.0000 C   0  0  0  0  0  0  0  0  0  0  0  0
   -3.0633    0.6776    0.0000 C   0  0  0  0  0  0  0  0  0  0  0  0
   -2.1360   -0.5013    0.0000 C   0  0  0  0  0  0  0  0  0  0  0  0
   -0.6513   -0.2877    0.0000 C   0  0  0  0  0  0  0  0  0  0  0  0
   -2.9707   -1.7476    0.0000 O   0  0  0  0  0  0  0  0  0  0  0  0
   -4.4139   -1.3389    0.0000 C   0  0  0  0  0  0  0  0  0  0  0  0
   -4.4712    0.1600    0.0000 O   0  0  0  0  0  0  0  0  0  0  0  0
    3.8029    0.3531    0.0000 C   0  0  0  0  0  0  0  0  0  0  0  0
    4.7302   -0.8259    0.0000 R   0  0  0  0  0  1  0  0  0  0  0  0
    4.3602    1.7457    0.0000 O   0  0  0  0  0  0  0  0  0  0  0  0
  1  2  1  0
  2  3  1  0
  2  4  1  0
  4  5  1  6
  5  6  1  0
  6  7  1  0
  7  8  2  0
  8  9  1  0
  9 10  2  0
 10 11  1  0
 10 12  1  0
 12 13  1  0
 13 14  1  0
  4 15  1  0
 15 16  1  0
 15 17  2  0
 11  6  2  0
 14  9  1  0
M  ISO  3   1   1   3   3  16   2
M  END
>  <symbol>  (555) 
D_PipAla

>  <m_abbr>  (555) 
D_PipAla

>  <m_name>  (555) 
D-Piperonylalanine

>  <m_type>  (555) 
aa

>  <m_subtype>  (555) 
modified

>  <m_Rgroups>  (555) 
[H],[OH],[H]

>  <m_chem_types>  (555) 
1:backbone_n,2:backbone_c,3:backbone_n_mod

>  <m_activation_policy>  (555) 
canonical-sites-v1

$$$$

     RDKit          2D

 15 15  0  0  0  0  0  0  0  0999 V2000
   -2.5933    2.2771    0.0000 R   0  0  0  0  0  1  0  0  0  0  0  0
   -1.4913    1.2594    0.0000 N   0  0  0  0  0  0  0  0  0  0  0  0
   -0.0590    1.7049    0.0000 R   0  0  0  0  0  1  0  0  0  0  0  0
   -1.8217   -0.2038    0.0000 C   0  0  0  0  0  0  0  0  0  0  0  0
   -0.7197   -1.2215    0.0000 C   0  0  0  0  0  0  0  0  0  0  0  0
    0.7126   -0.7760    0.0000 C   0  0  0  0  0  0  0  0  0  0  0  0
    1.0430    0.6872    0.0000 C   0  0  0  0  0  0  0  0  0  0  0  0
    2.4753    1.1326    0.0000 C   0  0  0  0  0  0  0  0  0  0  0  0
    3.5773    0.1149    0.0000 C   0  0  0  0  0  0  0  0  0  0  0  0
    5.0096    0.5604    0.0000 Br  0  0  0  0  0  0  0  0  0  0  0  0
    3.2469   -1.3482    0.0000 C   0  0  0  0  0  0  0  0  0  0  0  0
    1.8146   -1.7937    0.0000 C   0  0  0  0  0  0  0  0  0  0  0  0
   -3.2540   -0.6493    0.0000 C   0  0  0  0  0  0  0  0  0  0  0  0
   -4.3559    0.3684    0.0000 R   0  0  0  0  0  1  0  0  0  0  0  0
   -3.5844   -2.1124    0.0000 O   0  0  0  0  0  0  0  0  0  0  0  0
  1  2  1  0
  2  3  1  0
  2  4  1  0
  4  5  1  6
  5  6  1  0
  6  7  1  0
  7  8  2  0
  8  9  1  0
  9 10  1  0
  9 11  2  0
 11 12  1  0
  4 13  1  0
 13 14  1  0
 13 15  2  0
 12  6  2  0
M  ISO  3   1   1   3   3  14   2
M  END
>  <symbol>  (556) 
D_Phe_4Br

>  <m_abbr>  (556) 
D_Phe_4Br

>  <m_name>  (556) 
D-4-Bromophenylalanine

>  <m_type>  (556) 
aa

>  <m_subtype>  (556) 
modified

>  <m_Rgroups>  (556) 
[H],[OH],[H]

>  <m_chem_types>  (556) 
1:backbone_n,2:backbone_c,3:backbone_n_mod

>  <m_activation_policy>  (556) 
canonical-sites-v1

$$$$

     RDKit          2D

 15 15  0  0  0  0  0  0  0  0999 V2000
   -2.5933    2.2771    0.0000 R   0  0  0  0  0  1  0  0  0  0  0  0
   -1.4913    1.2594    0.0000 N   0  0  0  0  0  0  0  0  0  0  0  0
   -0.0590    1.7049    0.0000 R   0  0  0  0  0  1  0  0  0  0  0  0
   -1.8217   -0.2038    0.0000 C   0  0  0  0  0  0  0  0  0  0  0  0
   -0.7197   -1.2215    0.0000 C   0  0  0  0  0  0  0  0  0  0  0  0
    0.7126   -0.7760    0.0000 C   0  0  0  0  0  0  0  0  0  0  0  0
    1.0430    0.6872    0.0000 C   0  0  0  0  0  0  0  0  0  0  0  0
    2.4753    1.1326    0.0000 C   0  0  0  0  0  0  0  0  0  0  0  0
    3.5773    0.1149    0.0000 C   0  0  0  0  0  0  0  0  0  0  0  0
    5.0096    0.5604    0.0000 I   0  0  0  0  0  0  0  0  0  0  0  0
    3.2469   -1.3482    0.0000 C   0  0  0  0  0  0  0  0  0  0  0  0
    1.8146   -1.7937    0.0000 C   0  0  0  0  0  0  0  0  0  0  0  0
   -3.2540   -0.6493    0.0000 C   0  0  0  0  0  0  0  0  0  0  0  0
   -4.3559    0.3684    0.0000 R   0  0  0  0  0  1  0  0  0  0  0  0
   -3.5844   -2.1124    0.0000 O   0  0  0  0  0  0  0  0  0  0  0  0
  1  2  1  0
  2  3  1  0
  2  4  1  0
  4  5  1  6
  5  6  1  0
  6  7  1  0
  7  8  2  0
  8  9  1  0
  9 10  1  0
  9 11  2  0
 11 12  1  0
  4 13  1  0
 13 14  1  0
 13 15  2  0
 12  6  2  0
M  ISO  3   1   1   3   3  14   2
M  END
>  <symbol>  (557) 
D_Phe_4I

>  <m_abbr>  (557) 
D_Phe_4I

>  <m_name>  (557) 
D-4-Iodophenylalanine

>  <m_type>  (557) 
aa

>  <m_subtype>  (557) 
modified

>  <m_Rgroups>  (557) 
[H],[OH],[H]

>  <m_chem_types>  (557) 
1:backbone_n,2:backbone_c,3:backbone_n_mod

>  <m_activation_policy>  (557) 
canonical-sites-v1

$$$$

     RDKit          2D

 17 17  0  0  0  0  0  0  0  0999 V2000
   -3.1584    2.3389    0.0000 R   0  0  0  0  0  1  0  0  0  0  0  0
   -2.1065    1.2696    0.0000 N   0  0  0  0  0  0  0  0  0  0  0  0
   -0.6545    1.6460    0.0000 R   0  0  0  0  0  1  0  0  0  0  0  0
   -2.5066   -0.1760    0.0000 C   0  0  0  0  0  0  0  0  0  0  0  0
   -1.4547   -1.2454    0.0000 C   0  0  0  0  0  0  0  0  0  0  0  0
   -0.0026   -0.8690    0.0000 C   0  0  0  0  0  0  0  0  0  0  0  0
    0.3974    0.5766    0.0000 C   0  0  0  0  0  0  0  0  0  0  0  0
    1.8495    0.9530    0.0000 C   0  0  0  0  0  0  0  0  0  0  0  0
    2.9014   -0.1163    0.0000 C   0  0  0  0  0  0  0  0  0  0  0  0
    4.3534    0.2600    0.0000 N   0  0  0  0  0  0  0  0  0  0  0  0
    4.7535    1.7057    0.0000 O   0  0  0  0  0  0  0  0  0  0  0  0
    5.4054   -0.8093    0.0000 O   0  0  0  0  0  0  0  0  0  0  0  0
    2.5013   -1.5620    0.0000 C   0  0  0  0  0  0  0  0  0  0  0  0
    1.0493   -1.9383    0.0000 C   0  0  0  0  0  0  0  0  0  0  0  0
   -3.9586   -0.5524    0.0000 C   0  0  0  0  0  0  0  0  0  0  0  0
   -5.0106    0.5169    0.0000 R   0  0  0  0  0  1  0  0  0  0  0  0
   -4.3587   -1.9980    0.0000 O   0  0  0  0  0  0  0  0  0  0  0  0
  1  2  1  0
  2  3  1  0
  2  4  1  0
  4  5  1  6
  5  6  1  0
  6  7  1  0
  7  8  2  0
  8  9  1  0
  9 10  1  0
 10 11  2  0
 10 12  1  0
  9 13  2  0
 13 14  1  0
  4 15  1  0
 15 16  1  0
 15 17  2  0
 14  6  2  0
M  CHG  2  10   1  12  -1
M  ISO  3   1   1   3   3  16   2
M  END
>  <symbol>  (558) 
D_Phe_4NO2

>  <m_abbr>  (558) 
D_Phe_4NO2

>  <m_name>  (558) 
D-4-Nitrophenylalanine

>  <m_type>  (558) 
aa

>  <m_subtype>  (558) 
modified

>  <m_Rgroups>  (558) 
[H],[OH],[H]

>  <m_chem_types>  (558) 
1:backbone_n,2:backbone_c,3:backbone_n_mod

>  <m_activation_policy>  (558) 
canonical-sites-v1

$$$$

     RDKit          2D

 17 17  0  0  0  0  0  0  0  0999 V2000
   -3.1584    2.3389    0.0000 R   0  0  0  0  0  1  0  0  0  0  0  0
   -2.1065    1.2696    0.0000 N   0  0  0  0  0  0  0  0  0  0  0  0
   -0.6545    1.6460    0.0000 R   0  0  0  0  0  1  0  0  0  0  0  0
   -2.5066   -0.1760    0.0000 C   0  0  0  0  0  0  0  0  0  0  0  0
   -1.4547   -1.2454    0.0000 C   0  0  0  0  0  0  0  0  0  0  0  0
   -0.0026   -0.8690    0.0000 C   0  0  0  0  0  0  0  0  0  0  0  0
    0.3974    0.5766    0.0000 C   0  0  0  0  0  0  0  0  0  0  0  0
    1.8495    0.9530    0.0000 C   0  0  0  0  0  0  0  0  0  0  0  0
    2.9014   -0.1163    0.0000 C   0  0  0  0  0  0  0  0  0  0  0  0
    4.3534    0.2600    0.0000 N   0  0  0  0  0  0  0  0  0  0  0  0
    5.4054   -0.8093    0.0000 R   0  0  0  0  0  1  0  0  0  0  0  0
    4.7535    1.7057    0.0000 R   0  0  0  0  0  1  0  0  0  0  0  0
    2.5013   -1.5620    0.0000 C   0  0  0  0  0  0  0  0  0  0  0  0
    1.0493   -1.9383    0.0000 C   0  0  0  0  0  0  0  0  0  0  0  0
   -3.9586   -0.5524    0.0000 C   0  0  0  0  0  0  0  0  0  0  0  0
   -5.0106    0.5169    0.0000 R   0  0  0  0  0  1  0  0  0  0  0  0
   -4.3587   -1.9980    0.0000 O   0  0  0  0  0  0  0  0  0  0  0  0
  1  2  1  0
  2  3  1  0
  2  4  1  0
  4  5  1  6
  5  6  1  0
  6  7  1  0
  7  8  2  0
  8  9  1  0
  9 10  1  0
 10 11  1  0
 10 12  1  0
  9 13  2  0
 13 14  1  0
  4 15  1  0
 15 16  1  0
 15 17  2  0
 14  6  2  0
M  ISO  5   1   1   3   3  11   4  12   5  16   2
M  END
>  <symbol>  (559) 
D_Phe_4NH2

>  <m_abbr>  (559) 
D_Phe_4NH2

>  <m_name>  (559) 
D-4-Aminophenylalanine

>  <m_type>  (559) 
aa

>  <m_subtype>  (559) 
modified

>  <m_Rgroups>  (559) 
[H],[OH],[H],[H],[H]

>  <m_chem_types>  (559) 
1:backbone_n,2:backbone_c,3:backbone_n_mod,4:amine_primary,5:amine_primary

>  <m_activation_policy>  (559) 
canonical-sites-v1

$$$$

     RDKit          2D

 17 17  0  0  0  0  0  0  0  0999 V2000
   -3.1584    2.3389    0.0000 R   0  0  0  0  0  1  0  0  0  0  0  0
   -2.1065    1.2696    0.0000 N   0  0  0  0  0  0  0  0  0  0  0  0
   -0.6545    1.6460    0.0000 R   0  0  0  0  0  1  0  0  0  0  0  0
   -2.5066   -0.1760    0.0000 C   0  0  0  0  0  0  0  0  0  0  0  0
   -1.4547   -1.2454    0.0000 C   0  0  0  0  0  0  0  0  0  0  0  0
   -0.0026   -0.8690    0.0000 C   0  0  0  0  0  0  0  0  0  0  0  0
    0.3974    0.5766    0.0000 C   0  0  0  0  0  0  0  0  0  0  0  0
    1.8495    0.9530    0.0000 C   0  0  0  0  0  0  0  0  0  0  0  0
    2.9014   -0.1163    0.0000 C   0  0  0  0  0  0  0  0  0  0  0  0
    4.3534    0.2600    0.0000 N   0  0  0  0  0  0  0  0  0  0  0  0
    5.4054   -0.8093    0.0000 C   0  0  0  0  0  0  0  0  0  0  0  0
    4.7535    1.7057    0.0000 C   0  0  0  0  0  0  0  0  0  0  0  0
    2.5013   -1.5620    0.0000 C   0  0  0  0  0  0  0  0  0  0  0  0
    1.0493   -1.9383    0.0000 C   0  0  0  0  0  0  0  0  0  0  0  0
   -3.9586   -0.5524    0.0000 C   0  0  0  0  0  0  0  0  0  0  0  0
   -5.0106    0.5169    0.0000 R   0  0  0  0  0  1  0  0  0  0  0  0
   -4.3587   -1.9980    0.0000 O   0  0  0  0  0  0  0  0  0  0  0  0
  1  2  1  0
  2  3  1  0
  2  4  1  0
  4  5  1  6
  5  6  1  0
  6  7  1  0
  7  8  2  0
  8  9  1  0
  9 10  1  0
 10 11  1  0
 10 12  1  0
  9 13  2  0
 13 14  1  0
  4 15  1  0
 15 16  1  0
 15 17  2  0
 14  6  2  0
M  ISO  3   1   1   3   3  16   2
M  END
>  <symbol>  (560) 
D_Phe_4NMe2

>  <m_abbr>  (560) 
D_Phe_4NMe2

>  <m_name>  (560) 
D-4-(Dimethylamino)phenylalanine

>  <m_type>  (560) 
aa

>  <m_subtype>  (560) 
modified

>  <m_Rgroups>  (560) 
[H],[OH],[H]

>  <m_chem_types>  (560) 
1:backbone_n,2:backbone_c,3:backbone_n_mod

>  <m_activation_policy>  (560) 
canonical-sites-v1

$$$$

     RDKit          2D

 16 16  0  0  0  0  0  0  0  0999 V2000
   -3.0227    2.2431    0.0000 R   0  0  0  0  0  1  0  0  0  0  0  0
   -1.8997    1.2486    0.0000 N   0  0  0  0  0  0  0  0  0  0  0  0
   -0.4770    1.7239    0.0000 R   0  0  0  0  0  1  0  0  0  0  0  0
   -2.1995   -0.2211    0.0000 C   0  0  0  0  0  0  0  0  0  0  0  0
   -1.0766   -1.2156    0.0000 C   0  0  0  0  0  0  0  0  0  0  0  0
    0.3462   -0.7404    0.0000 C   0  0  0  0  0  0  0  0  0  0  0  0
    0.6459    0.7294    0.0000 C   0  0  0  0  0  0  0  0  0  0  0  0
    2.0687    1.2046    0.0000 C   0  0  0  0  0  0  0  0  0  0  0  0
    3.1916    0.2101    0.0000 C   0  0  0  0  0  0  0  0  0  0  0  0
    4.6143    0.6854    0.0000 S   0  0  0  0  0  0  0  0  0  0  0  0
    5.7373   -0.3091    0.0000 C   0  0  0  0  0  0  0  0  0  0  0  0
    2.8918   -1.2596    0.0000 C   0  0  0  0  0  0  0  0  0  0  0  0
    1.4691   -1.7348    0.0000 C   0  0  0  0  0  0  0  0  0  0  0  0
   -3.6222   -0.6964    0.0000 C   0  0  0  0  0  0  0  0  0  0  0  0
   -4.7452    0.2981    0.0000 R   0  0  0  0  0  1  0  0  0  0  0  0
   -3.9220   -2.1661    0.0000 O   0  0  0  0  0  0  0  0  0  0  0  0
  1  2  1  0
  2  3  1  0
  2  4  1  0
  4  5  1  6
  5  6  1  0
  6  7  1  0
  7  8  2  0
  8  9  1  0
  9 10  1  0
 10 11  1  0
  9 12  2  0
 12 13  1  0
  4 14  1  0
 14 15  1  0
 14 16  2  0
 13  6  2  0
M  ISO  3   1   1   3   3  15   2
M  END
>  <symbol>  (561) 
D_Phe_4SMe

>  <m_abbr>  (561) 
D_Phe_4SMe

>  <m_name>  (561) 
D-4-(Methylthio)phenylalanine

>  <m_type>  (561) 
aa

>  <m_subtype>  (561) 
modified

>  <m_Rgroups>  (561) 
[H],[OH],[H]

>  <m_chem_types>  (561) 
1:backbone_n,2:backbone_c,3:backbone_n_mod

>  <m_activation_policy>  (561) 
canonical-sites-v1

$$$$

     RDKit          2D

 18 19  0  0  0  0  0  0  0  0999 V2000
   -3.2833   -2.4036    0.0000 R   0  0  0  0  0  1  0  0  0  0  0  0
   -2.1899   -1.3768    0.0000 N   0  0  0  0  0  0  0  0  0  0  0  0
   -0.7539   -1.8103    0.0000 R   0  0  0  0  0  1  0  0  0  0  0  0
   -2.5325    0.0836    0.0000 C   0  0  0  0  0  0  0  0  0  0  0  0
   -1.4391    1.1104    0.0000 C   0  0  0  0  0  0  0  0  0  0  0  0
   -0.0031    0.6770    0.0000 C   0  0  0  0  0  0  0  0  0  0  0  0
    0.4902   -0.7396    0.0000 N   0  0  0  0  0  0  0  0  0  0  0  0
    1.9899   -0.7081    0.0000 C   0  0  0  0  0  0  0  0  0  0  0  0
    3.0168   -1.8015    0.0000 C   0  0  0  0  0  0  0  0  0  0  0  0
    4.4771   -1.4589    0.0000 C   0  0  0  0  0  0  0  0  0  0  0  0
    4.9106   -0.0229    0.0000 C   0  0  0  0  0  0  0  0  0  0  0  0
    3.8837    1.0705    0.0000 C   0  0  0  0  0  0  0  0  0  0  0  0
    2.4234    0.7279    0.0000 C   0  0  0  0  0  0  0  0  0  0  0  0
    1.1916    1.5839    0.0000 N   0  0  0  0  0  0  0  0  0  0  0  0
    1.1601    3.0836    0.0000 R   0  0  0  0  0  1  0  0  0  0  0  0
   -3.9685    0.5171    0.0000 C   0  0  0  0  0  0  0  0  0  0  0  0
   -5.0619   -0.5098    0.0000 R   0  0  0  0  0  1  0  0  0  0  0  0
   -4.3111    1.9774    0.0000 O   0  0  0  0  0  0  0  0  0  0  0  0
  1  2  1  0
  2  3  1  0
  2  4  1  0
  4  5  1  6
  5  6  1  0
  6  7  2  0
  7  8  1  0
  8  9  2  0
  9 10  1  0
 10 11  2  0
 11 12  1  0
 12 13  2  0
 13 14  1  0
 14 15  1  0
  4 16  1  0
 16 17  1  0
 16 18  2  0
 14  6  1  0
 13  8  1  0
M  ISO  4   1   1   3   3  15   4  17   2
M  END
>  <symbol>  (562) 
BimAla

>  <m_abbr>  (562) 
BimAla

>  <m_name>  (562) 
L-Benzimidazol-2-yl-alanine

>  <m_type>  (562) 
aa

>  <m_subtype>  (562) 
modified

>  <m_Rgroups>  (562) 
[H],[OH],[H],[H]

>  <m_chem_types>  (562) 
1:backbone_n,2:backbone_c,3:backbone_n_mod,4:aromatic_nh

>  <m_activation_policy>  (562) 
canonical-sites-v1

$$$$

     RDKit          2D

 18 19  0  0  0  0  0  0  0  0999 V2000
   -2.8410    2.4745    0.0000 R   0  0  0  0  0  1  0  0  0  0  0  0
   -1.9666    1.2557    0.0000 N   0  0  0  0  0  0  0  0  0  0  0  0
   -0.4739    1.4035    0.0000 R   0  0  0  0  0  1  0  0  0  0  0  0
   -2.5850   -0.1109    0.0000 C   0  0  0  0  0  0  0  0  0  0  0  0
   -1.7106   -1.3297    0.0000 C   0  0  0  0  0  0  0  0  0  0  0  0
   -0.2179   -1.1819    0.0000 C   0  0  0  0  0  0  0  0  0  0  0  0
    0.6564   -2.4007    0.0000 C   0  0  0  0  0  0  0  0  0  0  0  0
    2.1491   -2.2530    0.0000 C   0  0  0  0  0  0  0  0  0  0  0  0
    2.7675   -0.8863    0.0000 C   0  0  0  0  0  0  0  0  0  0  0  0
    4.2602   -0.7385    0.0000 C   0  0  0  0  0  0  0  0  0  0  0  0
    4.8785    0.6281    0.0000 C   0  0  0  0  0  0  0  0  0  0  0  0
    4.0042    1.8469    0.0000 C   0  0  0  0  0  0  0  0  0  0  0  0
    2.5115    1.6991    0.0000 C   0  0  0  0  0  0  0  0  0  0  0  0
    1.8931    0.3325    0.0000 C   0  0  0  0  0  0  0  0  0  0  0  0
    0.4004    0.1847    0.0000 N   0  0  0  0  0  0  0  0  0  0  0  0
   -4.0777   -0.2587    0.0000 C   0  0  0  0  0  0  0  0  0  0  0  0
   -4.9520    0.9601    0.0000 R   0  0  0  0  0  1  0  0  0  0  0  0
   -4.6960   -1.6253    0.0000 O   0  0  0  0  0  0  0  0  0  0  0  0
  1  2  1  0
  2  3  1  0
  2  4  1  0
  4  5  1  1
  5  6  1  0
  6  7  1  0
  7  8  2  0
  8  9  1  0
  9 10  2  0
 10 11  1  0
 11 12  2  0
 12 13  1  0
 13 14  2  0
 14 15  1  0
  4 16  1  0
 16 17  1  0
 16 18  2  0
 15  6  2  0
 14  9  1  0
M  ISO  3   1   1   3   3  17   2
M  END
>  <symbol>  (563) 
QuiAla

>  <m_abbr>  (563) 
QuiAla

>  <m_name>  (563) 
L-Quinolin-2-yl-alanine

>  <m_type>  (563) 
aa

>  <m_subtype>  (563) 
modified

>  <m_Rgroups>  (563) 
[H],[OH],[H]

>  <m_chem_types>  (563) 
1:backbone_n,2:backbone_c,3:backbone_n_mod

>  <m_activation_policy>  (563) 
canonical-sites-v1

$$$$

     RDKit          2D

 18 19  0  0  0  0  0  0  0  0999 V2000
   -3.9967   -1.5786    0.0000 R   0  0  0  0  0  1  0  0  0  0  0  0
   -2.5756   -1.0986    0.0000 N   0  0  0  0  0  0  0  0  0  0  0  0
   -1.4493   -2.0892    0.0000 R   0  0  0  0  0  1  0  0  0  0  0  0
   -2.2807    0.3722    0.0000 C   0  0  0  0  0  0  0  0  0  0  0  0
   -0.8596    0.8522    0.0000 C   0  0  0  0  0  0  0  0  0  0  0  0
    0.2667   -0.1384    0.0000 C   0  0  0  0  0  0  0  0  0  0  0  0
   -0.0281   -1.6092    0.0000 N   0  0  0  0  0  0  0  0  0  0  0  0
    1.0981   -2.5999    0.0000 C   0  0  0  0  0  0  0  0  0  0  0  0
    2.5193   -2.1198    0.0000 C   0  0  0  0  0  0  0  0  0  0  0  0
    2.8141   -0.6491    0.0000 C   0  0  0  0  0  0  0  0  0  0  0  0
    4.2352   -0.1690    0.0000 C   0  0  0  0  0  0  0  0  0  0  0  0
    4.5300    1.3017    0.0000 C   0  0  0  0  0  0  0  0  0  0  0  0
    3.4037    2.2924    0.0000 C   0  0  0  0  0  0  0  0  0  0  0  0
    1.9826    1.8124    0.0000 C   0  0  0  0  0  0  0  0  0  0  0  0
    1.6878    0.3416    0.0000 C   0  0  0  0  0  0  0  0  0  0  0  0
   -3.4070    1.3629    0.0000 C   0  0  0  0  0  0  0  0  0  0  0  0
   -4.8281    0.8828    0.0000 R   0  0  0  0  0  1  0  0  0  0  0  0
   -3.1122    2.8336    0.0000 O   0  0  0  0  0  0  0  0  0  0  0  0
  1  2  1  0
  2  3  1  0
  2  4  1  0
  4  5  1  6
  5  6  1  0
  6  7  2  0
  7  8  1  0
  8  9  2  0
  9 10  1  0
 10 11  2  0
 11 12  1  0
 12 13  2  0
 13 14  1  0
 14 15  2  0
  4 16  1  0
 16 17  1  0
 16 18  2  0
 15  6  1  0
 15 10  1  0
M  ISO  3   1   1   3   3  17   2
M  END
>  <symbol>  (564) 
IsoQuiAla

>  <m_abbr>  (564) 
IsoQuiAla

>  <m_name>  (564) 
L-Isoquinolin-1-yl-alanine

>  <m_type>  (564) 
aa

>  <m_subtype>  (564) 
modified

>  <m_Rgroups>  (564) 
[H],[OH],[H]

>  <m_chem_types>  (564) 
1:backbone_n,2:backbone_c,3:backbone_n_mod

>  <m_activation_policy>  (564) 
canonical-sites-v1

$$$$

     RDKit          2D

 13 13  0  0  0  0  0  0  0  0999 V2000
   -2.0806    2.2134    0.0000 R   0  0  0  0  0  1  0  0  0  0  0  0
   -0.9264    1.2554    0.0000 N   0  0  0  0  0  0  0  0  0  0  0  0
    0.4804    1.7760    0.0000 R   0  0  0  0  0  1  0  0  0  0  0  0
   -1.1789   -0.2232    0.0000 C   0  0  0  0  0  0  0  0  0  0  0  0
   -0.0246   -1.1812    0.0000 C   0  0  0  0  0  0  0  0  0  0  0  0
    1.3821   -0.6606    0.0000 C   0  0  0  0  0  0  0  0  0  0  0  0
    2.6302   -1.4926    0.0000 C   0  0  0  0  0  0  0  0  0  0  0  0
    3.8072   -0.5628    0.0000 C   0  0  0  0  0  0  0  0  0  0  0  0
    3.2866    0.8440    0.0000 S   0  0  0  0  0  0  0  0  0  0  0  0
    1.7878    0.7835    0.0000 C   0  0  0  0  0  0  0  0  0  0  0  0
   -2.5856   -0.7438    0.0000 C   0  0  0  0  0  0  0  0  0  0  0  0
   -3.7399    0.2142    0.0000 R   0  0  0  0  0  1  0  0  0  0  0  0
   -2.8382   -2.2224    0.0000 O   0  0  0  0  0  0  0  0  0  0  0  0
  1  2  1  0
  2  3  1  0
  2  4  1  0
  4  5  1  1
  5  6  1  0
  6  7  1  0
  7  8  2  0
  8  9  1  0
  9 10  1  0
  4 11  1  0
 11 12  1  0
 11 13  2  0
 10  6  2  0
M  ISO  3   1   1   3   3  12   2
M  END
>  <symbol>  (565) 
Thi3Ala

>  <m_abbr>  (565) 
Thi3Ala

>  <m_name>  (565) 
L-Thiophen-3-yl-alanine

>  <m_type>  (565) 
aa

>  <m_subtype>  (565) 
modified

>  <m_Rgroups>  (565) 
[H],[OH],[H]

>  <m_chem_types>  (565) 
1:backbone_n,2:backbone_c,3:backbone_n_mod

>  <m_activation_policy>  (565) 
canonical-sites-v1

$$$$

     RDKit          2D

 18 19  0  0  0  0  0  0  0  0999 V2000
   -0.0444   -1.6308    0.0000 R   0  0  0  0  0  1  0  0  0  0  0  0
   -1.3257   -1.2056    0.0000 N   0  0  0  0  0  0  0  0  0  0  0  0
   -2.1721   -2.4440    0.0000 R   0  0  0  0  0  1  0  0  0  0  0  0
   -1.9749    0.1466    0.0000 C   0  0  0  0  0  0  0  0  0  0  0  0
   -1.1285    1.3850    0.0000 C   0  0  0  0  0  0  0  0  0  0  0  0
    0.3672    1.2711    0.0000 C   0  0  0  0  0  0  0  0  0  0  0  0
    1.1542   -0.0058    0.0000 C   0  0  0  0  0  0  0  0  0  0  0  0
    0.7319   -1.4451    0.0000 C   0  0  0  0  0  0  0  0  0  0  0  0
    1.7672   -2.5306    0.0000 C   0  0  0  0  0  0  0  0  0  0  0  0
    3.2248   -2.1767    0.0000 C   0  0  0  0  0  0  0  0  0  0  0  0
    3.6472   -0.7373    0.0000 C   0  0  0  0  0  0  0  0  0  0  0  0
    2.6119    0.3481    0.0000 C   0  0  0  0  0  0  0  0  0  0  0  0
    2.7257    1.8437    0.0000 N   0  0  0  0  0  0  0  0  0  0  0  0
    1.3384    2.4142    0.0000 N   0  0  0  0  0  0  0  0  0  0  0  0
    0.9845    3.8719    0.0000 R   0  0  0  0  0  1  0  0  0  0  0  0
   -3.4706    0.2605    0.0000 C   0  0  0  0  0  0  0  0  0  0  0  0
   -4.3170   -0.9779    0.0000 R   0  0  0  0  0  1  0  0  0  0  0  0
   -4.1198    1.6127    0.0000 O   0  0  0  0  0  0  0  0  0  0  0  0
  1  2  1  0
  2  3  1  0
  2  4  1  0
  4  5  1  6
  5  6  1  0
  6  7  2  0
  7  8  1  0
  8  9  2  0
  9 10  1  0
 10 11  2  0
 11 12  1  0
 12 13  2  0
 13 14  1  0
 14 15  1  0
  4 16  1  0
 16 17  1  0
 16 18  2  0
 14  6  1  0
 12  7  1  0
M  ISO  4   1   1   3   3  15   4  17   2
M  END
>  <symbol>  (566) 
IndAzAla

>  <m_abbr>  (566) 
IndAzAla

>  <m_name>  (566) 
L-Indazol-3-yl-alanine

>  <m_type>  (566) 
aa

>  <m_subtype>  (566) 
modified

>  <m_Rgroups>  (566) 
[H],[OH],[H],[H]

>  <m_chem_types>  (566) 
1:backbone_n,2:backbone_c,3:backbone_n_mod,4:aromatic_nh

>  <m_activation_policy>  (566) 
canonical-sites-v1

$$$$

     RDKit          2D

 13 13  0  0  0  0  0  0  0  0999 V2000
   -2.0806    2.2134    0.0000 R   0  0  0  0  0  1  0  0  0  0  0  0
   -0.9264    1.2554    0.0000 N   0  0  0  0  0  0  0  0  0  0  0  0
    0.4804    1.7760    0.0000 R   0  0  0  0  0  1  0  0  0  0  0  0
   -1.1789   -0.2232    0.0000 C   0  0  0  0  0  0  0  0  0  0  0  0
   -0.0246   -1.1812    0.0000 C   0  0  0  0  0  0  0  0  0  0  0  0
    1.3821   -0.6606    0.0000 N   0  0  0  0  0  0  0  0  0  0  0  0
    2.6302   -1.4926    0.0000 C   0  0  0  0  0  0  0  0  0  0  0  0
    3.8072   -0.5628    0.0000 C   0  0  0  0  0  0  0  0  0  0  0  0
    3.2866    0.8440    0.0000 C   0  0  0  0  0  0  0  0  0  0  0  0
    1.7878    0.7835    0.0000 C   0  0  0  0  0  0  0  0  0  0  0  0
   -2.5856   -0.7438    0.0000 C   0  0  0  0  0  0  0  0  0  0  0  0
   -3.7399    0.2142    0.0000 R   0  0  0  0  0  1  0  0  0  0  0  0
   -2.8382   -2.2224    0.0000 O   0  0  0  0  0  0  0  0  0  0  0  0
  1  2  1  0
  2  3  1  0
  2  4  1  0
  4  5  1  1
  5  6  1  0
  6  7  1  0
  7  8  2  0
  8  9  1  0
  9 10  2  0
  4 11  1  0
 11 12  1  0
 11 13  2  0
 10  6  1  0
M  ISO  3   1   1   3   3  12   2
M  END
>  <symbol>  (567) 
Pyr1Ala

>  <m_abbr>  (567) 
Pyr1Ala

>  <m_name>  (567) 
L-Pyrrol-1-yl-alanine (N-linked)

>  <m_type>  (567) 
aa

>  <m_subtype>  (567) 
modified

>  <m_Rgroups>  (567) 
[H],[OH],[H]

>  <m_chem_types>  (567) 
1:backbone_n,2:backbone_c,3:backbone_n_mod

>  <m_activation_policy>  (567) 
canonical-sites-v1

$$$$

     RDKit          2D

 13 13  0  0  0  0  0  0  0  0999 V2000
   -2.0806    2.2134    0.0000 R   0  0  0  0  0  1  0  0  0  0  0  0
   -0.9264    1.2554    0.0000 N   0  0  0  0  0  0  0  0  0  0  0  0
    0.4804    1.7760    0.0000 R   0  0  0  0  0  1  0  0  0  0  0  0
   -1.1789   -0.2232    0.0000 C   0  0  0  0  0  0  0  0  0  0  0  0
   -0.0246   -1.1812    0.0000 C   0  0  0  0  0  0  0  0  0  0  0  0
    1.3821   -0.6606    0.0000 N   0  0  0  0  0  0  0  0  0  0  0  0
    2.6302   -1.4926    0.0000 C   0  0  0  0  0  0  0  0  0  0  0  0
    3.8072   -0.5628    0.0000 C   0  0  0  0  0  0  0  0  0  0  0  0
    3.2866    0.8440    0.0000 N   0  0  0  0  0  0  0  0  0  0  0  0
    1.7878    0.7835    0.0000 N   0  0  0  0  0  0  0  0  0  0  0  0
   -2.5856   -0.7438    0.0000 C   0  0  0  0  0  0  0  0  0  0  0  0
   -3.7399    0.2142    0.0000 R   0  0  0  0  0  1  0  0  0  0  0  0
   -2.8382   -2.2224    0.0000 O   0  0  0  0  0  0  0  0  0  0  0  0
  1  2  1  0
  2  3  1  0
  2  4  1  0
  4  5  1  1
  5  6  1  0
  6  7  1  0
  7  8  2  0
  8  9  1  0
  9 10  2  0
  4 11  1  0
 11 12  1  0
 11 13  2  0
 10  6  1  0
M  ISO  3   1   1   3   3  12   2
M  END
>  <symbol>  (568) 
TriazAla

>  <m_abbr>  (568) 
TriazAla

>  <m_name>  (568) 
L-1,2,3-Triazol-1-yl-alanine

>  <m_type>  (568) 
aa

>  <m_subtype>  (568) 
modified

>  <m_Rgroups>  (568) 
[H],[OH],[H]

>  <m_chem_types>  (568) 
1:backbone_n,2:backbone_c,3:backbone_n_mod

>  <m_activation_policy>  (568) 
canonical-sites-v1

$$$$

     RDKit          2D

 17 18  0  0  0  0  0  0  0  0999 V2000
   -3.1526    2.3101    0.0000 R   0  0  0  0  0  1  0  0  0  0  0  0
   -2.0879    1.2534    0.0000 N   0  0  0  0  0  0  0  0  0  0  0  0
   -0.6405    1.6472    0.0000 R   0  0  0  0  0  1  0  0  0  0  0  0
   -2.4707   -0.1969    0.0000 C   0  0  0  0  0  0  0  0  0  0  0  0
   -1.4060   -1.2535    0.0000 C   0  0  0  0  0  0  0  0  0  0  0  0
    0.0414   -0.8598    0.0000 C   0  0  0  0  0  0  0  0  0  0  0  0
    1.2107   -1.7994    0.0000 N   0  0  0  0  0  0  0  0  0  0  0  0
    2.4656   -0.9777    0.0000 C   0  0  0  0  0  0  0  0  0  0  0  0
    3.9160   -1.3604    0.0000 C   0  0  0  0  0  0  0  0  0  0  0  0
    4.9726   -0.2957    0.0000 C   0  0  0  0  0  0  0  0  0  0  0  0
    4.5789    1.1517    0.0000 C   0  0  0  0  0  0  0  0  0  0  0  0
    3.1285    1.5344    0.0000 C   0  0  0  0  0  0  0  0  0  0  0  0
    2.0719    0.4697    0.0000 C   0  0  0  0  0  0  0  0  0  0  0  0
    0.5737    0.5426    0.0000 O   0  0  0  0  0  0  0  0  0  0  0  0
   -3.9181   -0.5906    0.0000 C   0  0  0  0  0  0  0  0  0  0  0  0
   -4.9827    0.4660    0.0000 R   0  0  0  0  0  1  0  0  0  0  0  0
   -4.3008   -2.0410    0.0000 O   0  0  0  0  0  0  0  0  0  0  0  0
  1  2  1  0
  2  3  1  0
  2  4  1  0
  4  5  1  1
  5  6  1  0
  6  7  2  0
  7  8  1  0
  8  9  2  0
  9 10  1  0
 10 11  2  0
 11 12  1  0
 12 13  2  0
 13 14  1  0
  4 15  1  0
 15 16  1  0
 15 17  2  0
 14  6  1  0
 13  8  1  0
M  ISO  3   1   1   3   3  16   2
M  END
>  <symbol>  (569) 
BenzoxAla

>  <m_abbr>  (569) 
BenzoxAla

>  <m_name>  (569) 
L-Benzoxazol-2-yl-alanine

>  <m_type>  (569) 
aa

>  <m_subtype>  (569) 
modified

>  <m_Rgroups>  (569) 
[H],[OH],[H]

>  <m_chem_types>  (569) 
1:backbone_n,2:backbone_c,3:backbone_n_mod

>  <m_activation_policy>  (569) 
canonical-sites-v1

$$$$

     RDKit          2D

 18 19  0  0  0  0  0  0  0  0999 V2000
   -3.2833   -2.4036    0.0000 R   0  0  0  0  0  1  0  0  0  0  0  0
   -2.1899   -1.3768    0.0000 N   0  0  0  0  0  0  0  0  0  0  0  0
   -0.7539   -1.8103    0.0000 R   0  0  0  0  0  1  0  0  0  0  0  0
   -2.5325    0.0836    0.0000 C   0  0  0  0  0  0  0  0  0  0  0  0
   -1.4391    1.1104    0.0000 C   0  0  0  0  0  0  0  0  0  0  0  0
   -0.0031    0.6770    0.0000 C   0  0  0  0  0  0  0  0  0  0  0  0
    0.4902   -0.7396    0.0000 N   0  0  0  0  0  0  0  0  0  0  0  0
    1.9899   -0.7081    0.0000 C   0  0  0  0  0  0  0  0  0  0  0  0
    3.0168   -1.8015    0.0000 C   0  0  0  0  0  0  0  0  0  0  0  0
    4.4771   -1.4589    0.0000 C   0  0  0  0  0  0  0  0  0  0  0  0
    4.9106   -0.0229    0.0000 C   0  0  0  0  0  0  0  0  0  0  0  0
    3.8837    1.0705    0.0000 C   0  0  0  0  0  0  0  0  0  0  0  0
    2.4234    0.7279    0.0000 C   0  0  0  0  0  0  0  0  0  0  0  0
    1.1916    1.5839    0.0000 N   0  0  0  0  0  0  0  0  0  0  0  0
    1.1601    3.0836    0.0000 R   0  0  0  0  0  1  0  0  0  0  0  0
   -3.9685    0.5171    0.0000 C   0  0  0  0  0  0  0  0  0  0  0  0
   -5.0619   -0.5098    0.0000 R   0  0  0  0  0  1  0  0  0  0  0  0
   -4.3111    1.9774    0.0000 O   0  0  0  0  0  0  0  0  0  0  0  0
  1  2  1  0
  2  3  1  0
  2  4  1  0
  4  5  1  1
  5  6  1  0
  6  7  2  0
  7  8  1  0
  8  9  2  0
  9 10  1  0
 10 11  2  0
 11 12  1  0
 12 13  2  0
 13 14  1  0
 14 15  1  0
  4 16  1  0
 16 17  1  0
 16 18  2  0
 14  6  1  0
 13  8  1  0
M  ISO  4   1   1   3   3  15   4  17   2
M  END
>  <symbol>  (570) 
D_BimAla

>  <m_abbr>  (570) 
D_BimAla

>  <m_name>  (570) 
D-Benzimidazol-2-yl-alanine

>  <m_type>  (570) 
aa

>  <m_subtype>  (570) 
modified

>  <m_Rgroups>  (570) 
[H],[OH],[H],[H]

>  <m_chem_types>  (570) 
1:backbone_n,2:backbone_c,3:backbone_n_mod,4:aromatic_nh

>  <m_activation_policy>  (570) 
canonical-sites-v1

$$$$

     RDKit          2D

 18 19  0  0  0  0  0  0  0  0999 V2000
   -2.8410    2.4745    0.0000 R   0  0  0  0  0  1  0  0  0  0  0  0
   -1.9666    1.2557    0.0000 N   0  0  0  0  0  0  0  0  0  0  0  0
   -0.4739    1.4035    0.0000 R   0  0  0  0  0  1  0  0  0  0  0  0
   -2.5850   -0.1109    0.0000 C   0  0  0  0  0  0  0  0  0  0  0  0
   -1.7106   -1.3297    0.0000 C   0  0  0  0  0  0  0  0  0  0  0  0
   -0.2179   -1.1819    0.0000 C   0  0  0  0  0  0  0  0  0  0  0  0
    0.6564   -2.4007    0.0000 C   0  0  0  0  0  0  0  0  0  0  0  0
    2.1491   -2.2530    0.0000 C   0  0  0  0  0  0  0  0  0  0  0  0
    2.7675   -0.8863    0.0000 C   0  0  0  0  0  0  0  0  0  0  0  0
    4.2602   -0.7385    0.0000 C   0  0  0  0  0  0  0  0  0  0  0  0
    4.8785    0.6281    0.0000 C   0  0  0  0  0  0  0  0  0  0  0  0
    4.0042    1.8469    0.0000 C   0  0  0  0  0  0  0  0  0  0  0  0
    2.5115    1.6991    0.0000 C   0  0  0  0  0  0  0  0  0  0  0  0
    1.8931    0.3325    0.0000 C   0  0  0  0  0  0  0  0  0  0  0  0
    0.4004    0.1847    0.0000 N   0  0  0  0  0  0  0  0  0  0  0  0
   -4.0777   -0.2587    0.0000 C   0  0  0  0  0  0  0  0  0  0  0  0
   -4.9520    0.9601    0.0000 R   0  0  0  0  0  1  0  0  0  0  0  0
   -4.6960   -1.6253    0.0000 O   0  0  0  0  0  0  0  0  0  0  0  0
  1  2  1  0
  2  3  1  0
  2  4  1  0
  4  5  1  6
  5  6  1  0
  6  7  1  0
  7  8  2  0
  8  9  1  0
  9 10  2  0
 10 11  1  0
 11 12  2  0
 12 13  1  0
 13 14  2  0
 14 15  1  0
  4 16  1  0
 16 17  1  0
 16 18  2  0
 15  6  2  0
 14  9  1  0
M  ISO  3   1   1   3   3  17   2
M  END
>  <symbol>  (571) 
D_QuiAla

>  <m_abbr>  (571) 
D_QuiAla

>  <m_name>  (571) 
D-Quinolin-2-yl-alanine

>  <m_type>  (571) 
aa

>  <m_subtype>  (571) 
modified

>  <m_Rgroups>  (571) 
[H],[OH],[H]

>  <m_chem_types>  (571) 
1:backbone_n,2:backbone_c,3:backbone_n_mod

>  <m_activation_policy>  (571) 
canonical-sites-v1

$$$$

     RDKit          2D

 13 13  0  0  0  0  0  0  0  0999 V2000
   -2.0806    2.2134    0.0000 R   0  0  0  0  0  1  0  0  0  0  0  0
   -0.9264    1.2554    0.0000 N   0  0  0  0  0  0  0  0  0  0  0  0
    0.4804    1.7760    0.0000 R   0  0  0  0  0  1  0  0  0  0  0  0
   -1.1789   -0.2232    0.0000 C   0  0  0  0  0  0  0  0  0  0  0  0
   -0.0246   -1.1812    0.0000 C   0  0  0  0  0  0  0  0  0  0  0  0
    1.3821   -0.6606    0.0000 C   0  0  0  0  0  0  0  0  0  0  0  0
    2.6302   -1.4926    0.0000 C   0  0  0  0  0  0  0  0  0  0  0  0
    3.8072   -0.5628    0.0000 C   0  0  0  0  0  0  0  0  0  0  0  0
    3.2866    0.8440    0.0000 S   0  0  0  0  0  0  0  0  0  0  0  0
    1.7878    0.7835    0.0000 C   0  0  0  0  0  0  0  0  0  0  0  0
   -2.5856   -0.7438    0.0000 C   0  0  0  0  0  0  0  0  0  0  0  0
   -3.7399    0.2142    0.0000 R   0  0  0  0  0  1  0  0  0  0  0  0
   -2.8382   -2.2224    0.0000 O   0  0  0  0  0  0  0  0  0  0  0  0
  1  2  1  0
  2  3  1  0
  2  4  1  0
  4  5  1  6
  5  6  1  0
  6  7  1  0
  7  8  2  0
  8  9  1  0
  9 10  1  0
  4 11  1  0
 11 12  1  0
 11 13  2  0
 10  6  2  0
M  ISO  3   1   1   3   3  12   2
M  END
>  <symbol>  (572) 
D_Thi3Ala

>  <m_abbr>  (572) 
D_Thi3Ala

>  <m_name>  (572) 
D-Thiophen-3-yl-alanine

>  <m_type>  (572) 
aa

>  <m_subtype>  (572) 
modified

>  <m_Rgroups>  (572) 
[H],[OH],[H]

>  <m_chem_types>  (572) 
1:backbone_n,2:backbone_c,3:backbone_n_mod

>  <m_activation_policy>  (572) 
canonical-sites-v1

$$$$

     RDKit          2D

 18 19  0  0  0  0  0  0  0  0999 V2000
   -0.0444   -1.6308    0.0000 R   0  0  0  0  0  1  0  0  0  0  0  0
   -1.3257   -1.2056    0.0000 N   0  0  0  0  0  0  0  0  0  0  0  0
   -2.1721   -2.4440    0.0000 R   0  0  0  0  0  1  0  0  0  0  0  0
   -1.9749    0.1466    0.0000 C   0  0  0  0  0  0  0  0  0  0  0  0
   -1.1285    1.3850    0.0000 C   0  0  0  0  0  0  0  0  0  0  0  0
    0.3672    1.2711    0.0000 C   0  0  0  0  0  0  0  0  0  0  0  0
    1.1542   -0.0058    0.0000 C   0  0  0  0  0  0  0  0  0  0  0  0
    0.7319   -1.4451    0.0000 C   0  0  0  0  0  0  0  0  0  0  0  0
    1.7672   -2.5306    0.0000 C   0  0  0  0  0  0  0  0  0  0  0  0
    3.2248   -2.1767    0.0000 C   0  0  0  0  0  0  0  0  0  0  0  0
    3.6472   -0.7373    0.0000 C   0  0  0  0  0  0  0  0  0  0  0  0
    2.6119    0.3481    0.0000 C   0  0  0  0  0  0  0  0  0  0  0  0
    2.7257    1.8437    0.0000 N   0  0  0  0  0  0  0  0  0  0  0  0
    1.3384    2.4142    0.0000 N   0  0  0  0  0  0  0  0  0  0  0  0
    0.9845    3.8719    0.0000 R   0  0  0  0  0  1  0  0  0  0  0  0
   -3.4706    0.2605    0.0000 C   0  0  0  0  0  0  0  0  0  0  0  0
   -4.3170   -0.9779    0.0000 R   0  0  0  0  0  1  0  0  0  0  0  0
   -4.1198    1.6127    0.0000 O   0  0  0  0  0  0  0  0  0  0  0  0
  1  2  1  0
  2  3  1  0
  2  4  1  0
  4  5  1  1
  5  6  1  0
  6  7  2  0
  7  8  1  0
  8  9  2  0
  9 10  1  0
 10 11  2  0
 11 12  1  0
 12 13  2  0
 13 14  1  0
 14 15  1  0
  4 16  1  0
 16 17  1  0
 16 18  2  0
 14  6  1  0
 12  7  1  0
M  ISO  4   1   1   3   3  15   4  17   2
M  END
>  <symbol>  (573) 
D_IndAzAla

>  <m_abbr>  (573) 
D_IndAzAla

>  <m_name>  (573) 
D-Indazol-3-yl-alanine

>  <m_type>  (573) 
aa

>  <m_subtype>  (573) 
modified

>  <m_Rgroups>  (573) 
[H],[OH],[H],[H]

>  <m_chem_types>  (573) 
1:backbone_n,2:backbone_c,3:backbone_n_mod,4:aromatic_nh

>  <m_activation_policy>  (573) 
canonical-sites-v1

$$$$

     RDKit          2D

 19 20  0  0  0  0  0  0  0  0999 V2000
   -3.9960   -1.9420    0.0000 R   0  0  0  0  0  1  0  0  0  0  0  0
   -2.6837   -1.2154    0.0000 N   0  0  0  0  0  0  0  0  0  0  0  0
   -1.3983   -1.9886    0.0000 R   0  0  0  0  0  1  0  0  0  0  0  0
   -2.6567    0.2843    0.0000 C   0  0  0  0  0  0  0  0  0  0  0  0
   -1.3444    1.0109    0.0000 C   0  0  0  0  0  0  0  0  0  0  0  0
   -0.0591    0.2377    0.0000 C   0  0  0  0  0  0  0  0  0  0  0  0
    0.0709   -1.2567    0.0000 C   0  0  0  0  0  0  0  0  0  0  0  0
    1.5323   -1.5948    0.0000 N   0  0  0  0  0  0  0  0  0  0  0  0
    2.1177   -2.9759    0.0000 R   0  0  0  0  0  1  0  0  0  0  0  0
    2.3055   -0.3095    0.0000 C   0  0  0  0  0  0  0  0  0  0  0  0
    3.7781   -0.0240    0.0000 C   0  0  0  0  0  0  0  0  0  0  0  0
    4.7616   -1.1565    0.0000 C   0  0  0  0  0  0  0  0  0  0  0  0
    4.2671    1.3940    0.0000 C   0  0  0  0  0  0  0  0  0  0  0  0
    3.2836    2.5266    0.0000 C   0  0  0  0  0  0  0  0  0  0  0  0
    1.8110    2.2411    0.0000 C   0  0  0  0  0  0  0  0  0  0  0  0
    1.3220    0.8231    0.0000 C   0  0  0  0  0  0  0  0  0  0  0  0
   -3.9421    1.0575    0.0000 C   0  0  0  0  0  0  0  0  0  0  0  0
   -5.2544    0.3310    0.0000 R   0  0  0  0  0  1  0  0  0  0  0  0
   -3.9152    2.5573    0.0000 O   0  0  0  0  0  0  0  0  0  0  0  0
  1  2  1  0
  2  3  1  0
  2  4  1  0
  4  5  1  6
  5  6  1  0
  6  7  2  0
  7  8  1  0
  8  9  1  0
  8 10  1  0
 10 11  2  0
 11 12  1  0
 11 13  1  0
 13 14  2  0
 14 15  1  0
 15 16  2  0
  4 17  1  0
 17 18  1  0
 17 19  2  0
 16  6  1  0
 16 10  1  0
M  ISO  4   1   1   3   3   9   4  18   2
M  END
>  <symbol>  (574) 
Trp_4Me

>  <m_abbr>  (574) 
Trp_4Me

>  <m_name>  (574) 
L-4-Methyltryptophan

>  <m_type>  (574) 
aa

>  <m_subtype>  (574) 
modified

>  <m_Rgroups>  (574) 
[H],[OH],[H],[H]

>  <m_chem_types>  (574) 
1:backbone_n,2:backbone_c,3:backbone_n_mod,4:aromatic_nh

>  <m_activation_policy>  (574) 
canonical-sites-v1

$$$$

     RDKit          2D

 19 20  0  0  0  0  0  0  0  0999 V2000
   -3.9960   -1.9420    0.0000 R   0  0  0  0  0  1  0  0  0  0  0  0
   -2.6837   -1.2154    0.0000 N   0  0  0  0  0  0  0  0  0  0  0  0
   -1.3983   -1.9886    0.0000 R   0  0  0  0  0  1  0  0  0  0  0  0
   -2.6567    0.2843    0.0000 C   0  0  0  0  0  0  0  0  0  0  0  0
   -1.3444    1.0109    0.0000 C   0  0  0  0  0  0  0  0  0  0  0  0
   -0.0591    0.2377    0.0000 C   0  0  0  0  0  0  0  0  0  0  0  0
    0.0709   -1.2567    0.0000 C   0  0  0  0  0  0  0  0  0  0  0  0
    1.5323   -1.5948    0.0000 N   0  0  0  0  0  0  0  0  0  0  0  0
    2.1177   -2.9759    0.0000 R   0  0  0  0  0  1  0  0  0  0  0  0
    2.3055   -0.3095    0.0000 C   0  0  0  0  0  0  0  0  0  0  0  0
    3.7781   -0.0240    0.0000 C   0  0  0  0  0  0  0  0  0  0  0  0
    4.7616   -1.1565    0.0000 Cl  0  0  0  0  0  0  0  0  0  0  0  0
    4.2671    1.3940    0.0000 C   0  0  0  0  0  0  0  0  0  0  0  0
    3.2836    2.5266    0.0000 C   0  0  0  0  0  0  0  0  0  0  0  0
    1.8110    2.2411    0.0000 C   0  0  0  0  0  0  0  0  0  0  0  0
    1.3220    0.8231    0.0000 C   0  0  0  0  0  0  0  0  0  0  0  0
   -3.9421    1.0575    0.0000 C   0  0  0  0  0  0  0  0  0  0  0  0
   -5.2544    0.3310    0.0000 R   0  0  0  0  0  1  0  0  0  0  0  0
   -3.9152    2.5573    0.0000 O   0  0  0  0  0  0  0  0  0  0  0  0
  1  2  1  0
  2  3  1  0
  2  4  1  0
  4  5  1  6
  5  6  1  0
  6  7  2  0
  7  8  1  0
  8  9  1  0
  8 10  1  0
 10 11  2  0
 11 12  1  0
 11 13  1  0
 13 14  2  0
 14 15  1  0
 15 16  2  0
  4 17  1  0
 17 18  1  0
 17 19  2  0
 16  6  1  0
 16 10  1  0
M  ISO  4   1   1   3   3   9   4  18   2
M  END
>  <symbol>  (575) 
Trp_4Cl

>  <m_abbr>  (575) 
Trp_4Cl

>  <m_name>  (575) 
L-4-Chlorotryptophan

>  <m_type>  (575) 
aa

>  <m_subtype>  (575) 
modified

>  <m_Rgroups>  (575) 
[H],[OH],[H],[H]

>  <m_chem_types>  (575) 
1:backbone_n,2:backbone_c,3:backbone_n_mod,4:aromatic_nh

>  <m_activation_policy>  (575) 
canonical-sites-v1

$$$$

     RDKit          2D

 19 20  0  0  0  0  0  0  0  0999 V2000
   -3.9960   -1.9420    0.0000 R   0  0  0  0  0  1  0  0  0  0  0  0
   -2.6837   -1.2154    0.0000 N   0  0  0  0  0  0  0  0  0  0  0  0
   -1.3983   -1.9886    0.0000 R   0  0  0  0  0  1  0  0  0  0  0  0
   -2.6567    0.2843    0.0000 C   0  0  0  0  0  0  0  0  0  0  0  0
   -1.3444    1.0109    0.0000 C   0  0  0  0  0  0  0  0  0  0  0  0
   -0.0591    0.2377    0.0000 C   0  0  0  0  0  0  0  0  0  0  0  0
    0.0709   -1.2567    0.0000 C   0  0  0  0  0  0  0  0  0  0  0  0
    1.5323   -1.5948    0.0000 N   0  0  0  0  0  0  0  0  0  0  0  0
    2.1177   -2.9759    0.0000 R   0  0  0  0  0  1  0  0  0  0  0  0
    2.3055   -0.3095    0.0000 C   0  0  0  0  0  0  0  0  0  0  0  0
    3.7781   -0.0240    0.0000 C   0  0  0  0  0  0  0  0  0  0  0  0
    4.7616   -1.1565    0.0000 Br  0  0  0  0  0  0  0  0  0  0  0  0
    4.2671    1.3940    0.0000 C   0  0  0  0  0  0  0  0  0  0  0  0
    3.2836    2.5266    0.0000 C   0  0  0  0  0  0  0  0  0  0  0  0
    1.8110    2.2411    0.0000 C   0  0  0  0  0  0  0  0  0  0  0  0
    1.3220    0.8231    0.0000 C   0  0  0  0  0  0  0  0  0  0  0  0
   -3.9421    1.0575    0.0000 C   0  0  0  0  0  0  0  0  0  0  0  0
   -5.2544    0.3310    0.0000 R   0  0  0  0  0  1  0  0  0  0  0  0
   -3.9152    2.5573    0.0000 O   0  0  0  0  0  0  0  0  0  0  0  0
  1  2  1  0
  2  3  1  0
  2  4  1  0
  4  5  1  6
  5  6  1  0
  6  7  2  0
  7  8  1  0
  8  9  1  0
  8 10  1  0
 10 11  2  0
 11 12  1  0
 11 13  1  0
 13 14  2  0
 14 15  1  0
 15 16  2  0
  4 17  1  0
 17 18  1  0
 17 19  2  0
 16  6  1  0
 16 10  1  0
M  ISO  4   1   1   3   3   9   4  18   2
M  END
>  <symbol>  (576) 
Trp_4Br

>  <m_abbr>  (576) 
Trp_4Br

>  <m_name>  (576) 
L-4-Bromotryptophan

>  <m_type>  (576) 
aa

>  <m_subtype>  (576) 
modified

>  <m_Rgroups>  (576) 
[H],[OH],[H],[H]

>  <m_chem_types>  (576) 
1:backbone_n,2:backbone_c,3:backbone_n_mod,4:aromatic_nh

>  <m_activation_policy>  (576) 
canonical-sites-v1

$$$$

     RDKit          2D

 21 22  0  0  0  0  0  0  0  0999 V2000
   -4.9577   -1.4816    0.0000 R   0  0  0  0  0  1  0  0  0  0  0  0
   -3.5467   -0.9728    0.0000 N   0  0  0  0  0  0  0  0  0  0  0  0
   -2.4005   -1.9404    0.0000 R   0  0  0  0  0  1  0  0  0  0  0  0
   -3.2817    0.5036    0.0000 C   0  0  0  0  0  0  0  0  0  0  0  0
   -1.8707    1.0124    0.0000 C   0  0  0  0  0  0  0  0  0  0  0  0
   -0.7245    0.0448    0.0000 C   0  0  0  0  0  0  0  0  0  0  0  0
   -0.8336   -1.4512    0.0000 C   0  0  0  0  0  0  0  0  0  0  0  0
    0.5554   -2.0173    0.0000 N   0  0  0  0  0  0  0  0  0  0  0  0
    0.9139   -3.4739    0.0000 R   0  0  0  0  0  1  0  0  0  0  0  0
    1.5231   -0.8712    0.0000 C   0  0  0  0  0  0  0  0  0  0  0  0
    3.0223   -0.8233    0.0000 C   0  0  0  0  0  0  0  0  0  0  0  0
    3.7305    0.4990    0.0000 C   0  0  0  0  0  0  0  0  0  0  0  0
    5.2297    0.5468    0.0000 N   0  0  0  0  0  0  0  0  0  0  0  0
    6.0208   -0.7276    0.0000 R   0  0  0  0  0  1  0  0  0  0  0  0
    5.9379    1.8691    0.0000 R   0  0  0  0  0  1  0  0  0  0  0  0
    2.9394    1.7734    0.0000 C   0  0  0  0  0  0  0  0  0  0  0  0
    1.4402    1.7256    0.0000 C   0  0  0  0  0  0  0  0  0  0  0  0
    0.7320    0.4033    0.0000 C   0  0  0  0  0  0  0  0  0  0  0  0
   -4.4279    1.4713    0.0000 C   0  0  0  0  0  0  0  0  0  0  0  0
   -5.8390    0.9625    0.0000 R   0  0  0  0  0  1  0  0  0  0  0  0
   -4.1630    2.9477    0.0000 O   0  0  0  0  0  0  0  0  0  0  0  0
  1  2  1  0
  2  3  1  0
  2  4  1  0
  4  5  1  6
  5  6  1  0
  6  7  2  0
  7  8  1  0
  8  9  1  0
  8 10  1  0
 10 11  1  0
 11 12  2  0
 12 13  1  0
 13 14  1  0
 13 15  1  0
 12 16  1  0
 16 17  2  0
 17 18  1  0
  4 19  1  0
 19 20  1  0
 19 21  2  0
 18  6  1  0
 18 10  2  0
M  ISO  6   1   1   3   3   9   6  14   4  15   5  20   2
M  END
>  <symbol>  (577) 
Trp_5NH2

>  <m_abbr>  (577) 
Trp_5NH2

>  <m_name>  (577) 
L-5-Aminotryptophan

>  <m_type>  (577) 
aa

>  <m_subtype>  (577) 
modified

>  <m_Rgroups>  (577) 
[H],[OH],[H],[H],[H],[H]

>  <m_chem_types>  (577) 
1:backbone_n,2:backbone_c,3:backbone_n_mod,4:amine_primary,5:amine_primary,6:aromatic_nh

>  <m_activation_policy>  (577) 
canonical-sites-v1

$$$$

     RDKit          2D

 19 20  0  0  0  0  0  0  0  0999 V2000
   -3.9766   -1.8157    0.0000 R   0  0  0  0  0  1  0  0  0  0  0  0
   -2.6020   -1.2154    0.0000 N   0  0  0  0  0  0  0  0  0  0  0  0
   -1.3947   -2.1056    0.0000 R   0  0  0  0  0  1  0  0  0  0  0  0
   -2.4346    0.2753    0.0000 C   0  0  0  0  0  0  0  0  0  0  0  0
   -1.0600    0.8756    0.0000 C   0  0  0  0  0  0  0  0  0  0  0  0
    0.1473   -0.0146    0.0000 C   0  0  0  0  0  0  0  0  0  0  0  0
    0.1366   -1.5146    0.0000 C   0  0  0  0  0  0  0  0  0  0  0  0
    1.5599   -1.9882    0.0000 N   0  0  0  0  0  0  0  0  0  0  0  0
    2.0133   -3.4180    0.0000 R   0  0  0  0  0  1  0  0  0  0  0  0
    2.4501   -0.7810    0.0000 C   0  0  0  0  0  0  0  0  0  0  0  0
    3.9430   -0.6348    0.0000 C   0  0  0  0  0  0  0  0  0  0  0  0
    4.5628    0.7312    0.0000 C   0  0  0  0  0  0  0  0  0  0  0  0
    3.6898    1.9509    0.0000 C   0  0  0  0  0  0  0  0  0  0  0  0
    2.1969    1.8047    0.0000 C   0  0  0  0  0  0  0  0  0  0  0  0
    1.3238    3.0245    0.0000 C   0  0  0  0  0  0  0  0  0  0  0  0
    1.5771    0.4388    0.0000 C   0  0  0  0  0  0  0  0  0  0  0  0
   -3.6418    1.1655    0.0000 C   0  0  0  0  0  0  0  0  0  0  0  0
   -5.0164    0.5652    0.0000 R   0  0  0  0  0  1  0  0  0  0  0  0
   -3.4745    2.6562    0.0000 O   0  0  0  0  0  0  0  0  0  0  0  0
  1  2  1  0
  2  3  1  0
  2  4  1  0
  4  5  1  6
  5  6  1  0
  6  7  2  0
  7  8  1  0
  8  9  1  0
  8 10  1  0
 10 11  2  0
 11 12  1  0
 12 13  2  0
 13 14  1  0
 14 15  1  0
 14 16  2  0
  4 17  1  0
 17 18  1  0
 17 19  2  0
 16  6  1  0
 16 10  1  0
M  ISO  4   1   1   3   3   9   4  18   2
M  END
>  <symbol>  (578) 
Trp_7Me

>  <m_abbr>  (578) 
Trp_7Me

>  <m_name>  (578) 
L-7-Methyltryptophan

>  <m_type>  (578) 
aa

>  <m_subtype>  (578) 
modified

>  <m_Rgroups>  (578) 
[H],[OH],[H],[H]

>  <m_chem_types>  (578) 
1:backbone_n,2:backbone_c,3:backbone_n_mod,4:aromatic_nh

>  <m_activation_policy>  (578) 
canonical-sites-v1

$$$$

     RDKit          2D

 19 20  0  0  0  0  0  0  0  0999 V2000
   -3.9766   -1.8157    0.0000 R   0  0  0  0  0  1  0  0  0  0  0  0
   -2.6020   -1.2154    0.0000 N   0  0  0  0  0  0  0  0  0  0  0  0
   -1.3947   -2.1056    0.0000 R   0  0  0  0  0  1  0  0  0  0  0  0
   -2.4346    0.2753    0.0000 C   0  0  0  0  0  0  0  0  0  0  0  0
   -1.0600    0.8756    0.0000 C   0  0  0  0  0  0  0  0  0  0  0  0
    0.1473   -0.0146    0.0000 C   0  0  0  0  0  0  0  0  0  0  0  0
    0.1366   -1.5146    0.0000 C   0  0  0  0  0  0  0  0  0  0  0  0
    1.5599   -1.9882    0.0000 N   0  0  0  0  0  0  0  0  0  0  0  0
    2.0133   -3.4180    0.0000 R   0  0  0  0  0  1  0  0  0  0  0  0
    2.4501   -0.7810    0.0000 C   0  0  0  0  0  0  0  0  0  0  0  0
    3.9430   -0.6348    0.0000 C   0  0  0  0  0  0  0  0  0  0  0  0
    4.5628    0.7312    0.0000 C   0  0  0  0  0  0  0  0  0  0  0  0
    3.6898    1.9509    0.0000 C   0  0  0  0  0  0  0  0  0  0  0  0
    2.1969    1.8047    0.0000 C   0  0  0  0  0  0  0  0  0  0  0  0
    1.3238    3.0245    0.0000 Cl  0  0  0  0  0  0  0  0  0  0  0  0
    1.5771    0.4388    0.0000 C   0  0  0  0  0  0  0  0  0  0  0  0
   -3.6418    1.1655    0.0000 C   0  0  0  0  0  0  0  0  0  0  0  0
   -5.0164    0.5652    0.0000 R   0  0  0  0  0  1  0  0  0  0  0  0
   -3.4745    2.6562    0.0000 O   0  0  0  0  0  0  0  0  0  0  0  0
  1  2  1  0
  2  3  1  0
  2  4  1  0
  4  5  1  6
  5  6  1  0
  6  7  2  0
  7  8  1  0
  8  9  1  0
  8 10  1  0
 10 11  2  0
 11 12  1  0
 12 13  2  0
 13 14  1  0
 14 15  1  0
 14 16  2  0
  4 17  1  0
 17 18  1  0
 17 19  2  0
 16  6  1  0
 16 10  1  0
M  ISO  4   1   1   3   3   9   4  18   2
M  END
>  <symbol>  (579) 
Trp_7Cl

>  <m_abbr>  (579) 
Trp_7Cl

>  <m_name>  (579) 
L-7-Chlorotryptophan

>  <m_type>  (579) 
aa

>  <m_subtype>  (579) 
modified

>  <m_Rgroups>  (579) 
[H],[OH],[H],[H]

>  <m_chem_types>  (579) 
1:backbone_n,2:backbone_c,3:backbone_n_mod,4:aromatic_nh

>  <m_activation_policy>  (579) 
canonical-sites-v1

$$$$

     RDKit          2D

 19 20  0  0  0  0  0  0  0  0999 V2000
   -2.7738    2.1570    0.0000 R   0  0  0  0  0  1  0  0  0  0  0  0
   -1.7359    1.0741    0.0000 N   0  0  0  0  0  0  0  0  0  0  0  0
   -0.5416    1.7035    0.0000 R   0  0  0  0  0  1  0  0  0  0  0  0
   -2.1547   -0.3663    0.0000 C   0  0  0  0  0  0  0  0  0  0  0  0
   -1.1167   -1.4491    0.0000 C   0  0  0  0  0  0  0  0  0  0  0  0
    0.3400   -1.0917    0.0000 C   0  0  0  0  0  0  0  0  0  0  0  0
    1.4855   -2.0601    0.0000 C   0  0  0  0  0  0  0  0  0  0  0  0
    1.3753   -3.5561    0.0000 C   0  0  0  0  0  0  0  0  0  0  0  0
    2.7605   -1.2700    0.0000 N   0  0  0  0  0  0  0  0  0  0  0  0
    4.1492   -1.8371    0.0000 R   0  0  0  0  0  1  0  0  0  0  0  0
    2.4031    0.1868    0.0000 C   0  0  0  0  0  0  0  0  0  0  0  0
    3.2465    1.4272    0.0000 C   0  0  0  0  0  0  0  0  0  0  0  0
    2.5940    2.7778    0.0000 C   0  0  0  0  0  0  0  0  0  0  0  0
    1.0980    2.8880    0.0000 C   0  0  0  0  0  0  0  0  0  0  0  0
    0.2546    1.6476    0.0000 C   0  0  0  0  0  0  0  0  0  0  0  0
    0.9071    0.2970    0.0000 C   0  0  0  0  0  0  0  0  0  0  0  0
   -3.6115   -0.7237    0.0000 C   0  0  0  0  0  0  0  0  0  0  0  0
   -4.6494    0.3592    0.0000 R   0  0  0  0  0  1  0  0  0  0  0  0
   -4.0303   -2.1640    0.0000 O   0  0  0  0  0  0  0  0  0  0  0  0
  1  2  1  0
  2  3  1  0
  2  4  1  0
  4  5  1  1
  5  6  1  0
  6  7  2  0
  7  8  1  0
  7  9  1  0
  9 10  1  0
  9 11  1  0
 11 12  2  0
 12 13  1  0
 13 14  2  0
 14 15  1  0
 15 16  2  0
  4 17  1  0
 17 18  1  0
 17 19  2  0
 16  6  1  0
 16 11  1  0
M  ISO  4   1   1   3   3  10   4  18   2
M  END
>  <symbol>  (580) 
Trp_2Me

>  <m_abbr>  (580) 
Trp_2Me

>  <m_name>  (580) 
L-2-Methyltryptophan

>  <m_type>  (580) 
aa

>  <m_subtype>  (580) 
modified

>  <m_Rgroups>  (580) 
[H],[OH],[H],[H]

>  <m_chem_types>  (580) 
1:backbone_n,2:backbone_c,3:backbone_n_mod,4:aromatic_nh

>  <m_activation_policy>  (580) 
canonical-sites-v1

$$$$

     RDKit          2D

 19 20  0  0  0  0  0  0  0  0999 V2000
   -3.9960   -1.9420    0.0000 R   0  0  0  0  0  1  0  0  0  0  0  0
   -2.6837   -1.2154    0.0000 N   0  0  0  0  0  0  0  0  0  0  0  0
   -1.3983   -1.9886    0.0000 R   0  0  0  0  0  1  0  0  0  0  0  0
   -2.6567    0.2843    0.0000 C   0  0  0  0  0  0  0  0  0  0  0  0
   -1.3444    1.0109    0.0000 C   0  0  0  0  0  0  0  0  0  0  0  0
   -0.0591    0.2377    0.0000 C   0  0  0  0  0  0  0  0  0  0  0  0
    0.0709   -1.2567    0.0000 C   0  0  0  0  0  0  0  0  0  0  0  0
    1.5323   -1.5948    0.0000 N   0  0  0  0  0  0  0  0  0  0  0  0
    2.1177   -2.9759    0.0000 R   0  0  0  0  0  1  0  0  0  0  0  0
    2.3055   -0.3095    0.0000 C   0  0  0  0  0  0  0  0  0  0  0  0
    3.7781   -0.0240    0.0000 C   0  0  0  0  0  0  0  0  0  0  0  0
    4.7616   -1.1565    0.0000 C   0  0  0  0  0  0  0  0  0  0  0  0
    4.2671    1.3940    0.0000 C   0  0  0  0  0  0  0  0  0  0  0  0
    3.2836    2.5266    0.0000 C   0  0  0  0  0  0  0  0  0  0  0  0
    1.8110    2.2411    0.0000 C   0  0  0  0  0  0  0  0  0  0  0  0
    1.3220    0.8231    0.0000 C   0  0  0  0  0  0  0  0  0  0  0  0
   -3.9421    1.0575    0.0000 C   0  0  0  0  0  0  0  0  0  0  0  0
   -5.2544    0.3310    0.0000 R   0  0  0  0  0  1  0  0  0  0  0  0
   -3.9152    2.5573    0.0000 O   0  0  0  0  0  0  0  0  0  0  0  0
  1  2  1  0
  2  3  1  0
  2  4  1  0
  4  5  1  1
  5  6  1  0
  6  7  2  0
  7  8  1  0
  8  9  1  0
  8 10  1  0
 10 11  2  0
 11 12  1  0
 11 13  1  0
 13 14  2  0
 14 15  1  0
 15 16  2  0
  4 17  1  0
 17 18  1  0
 17 19  2  0
 16  6  1  0
 16 10  1  0
M  ISO  4   1   1   3   3   9   4  18   2
M  END
>  <symbol>  (581) 
D_Trp_4Me

>  <m_abbr>  (581) 
D_Trp_4Me

>  <m_name>  (581) 
D-4-Methyltryptophan

>  <m_type>  (581) 
aa

>  <m_subtype>  (581) 
modified

>  <m_Rgroups>  (581) 
[H],[OH],[H],[H]

>  <m_chem_types>  (581) 
1:backbone_n,2:backbone_c,3:backbone_n_mod,4:aromatic_nh

>  <m_activation_policy>  (581) 
canonical-sites-v1

$$$$

     RDKit          2D

 19 20  0  0  0  0  0  0  0  0999 V2000
   -3.9960   -1.9420    0.0000 R   0  0  0  0  0  1  0  0  0  0  0  0
   -2.6837   -1.2154    0.0000 N   0  0  0  0  0  0  0  0  0  0  0  0
   -1.3983   -1.9886    0.0000 R   0  0  0  0  0  1  0  0  0  0  0  0
   -2.6567    0.2843    0.0000 C   0  0  0  0  0  0  0  0  0  0  0  0
   -1.3444    1.0109    0.0000 C   0  0  0  0  0  0  0  0  0  0  0  0
   -0.0591    0.2377    0.0000 C   0  0  0  0  0  0  0  0  0  0  0  0
    0.0709   -1.2567    0.0000 C   0  0  0  0  0  0  0  0  0  0  0  0
    1.5323   -1.5948    0.0000 N   0  0  0  0  0  0  0  0  0  0  0  0
    2.1177   -2.9759    0.0000 R   0  0  0  0  0  1  0  0  0  0  0  0
    2.3055   -0.3095    0.0000 C   0  0  0  0  0  0  0  0  0  0  0  0
    3.7781   -0.0240    0.0000 C   0  0  0  0  0  0  0  0  0  0  0  0
    4.7616   -1.1565    0.0000 Br  0  0  0  0  0  0  0  0  0  0  0  0
    4.2671    1.3940    0.0000 C   0  0  0  0  0  0  0  0  0  0  0  0
    3.2836    2.5266    0.0000 C   0  0  0  0  0  0  0  0  0  0  0  0
    1.8110    2.2411    0.0000 C   0  0  0  0  0  0  0  0  0  0  0  0
    1.3220    0.8231    0.0000 C   0  0  0  0  0  0  0  0  0  0  0  0
   -3.9421    1.0575    0.0000 C   0  0  0  0  0  0  0  0  0  0  0  0
   -5.2544    0.3310    0.0000 R   0  0  0  0  0  1  0  0  0  0  0  0
   -3.9152    2.5573    0.0000 O   0  0  0  0  0  0  0  0  0  0  0  0
  1  2  1  0
  2  3  1  0
  2  4  1  0
  4  5  1  1
  5  6  1  0
  6  7  2  0
  7  8  1  0
  8  9  1  0
  8 10  1  0
 10 11  2  0
 11 12  1  0
 11 13  1  0
 13 14  2  0
 14 15  1  0
 15 16  2  0
  4 17  1  0
 17 18  1  0
 17 19  2  0
 16  6  1  0
 16 10  1  0
M  ISO  4   1   1   3   3   9   4  18   2
M  END
>  <symbol>  (582) 
D_Trp_4Br

>  <m_abbr>  (582) 
D_Trp_4Br

>  <m_name>  (582) 
D-4-Bromotryptophan

>  <m_type>  (582) 
aa

>  <m_subtype>  (582) 
modified

>  <m_Rgroups>  (582) 
[H],[OH],[H],[H]

>  <m_chem_types>  (582) 
1:backbone_n,2:backbone_c,3:backbone_n_mod,4:aromatic_nh

>  <m_activation_policy>  (582) 
canonical-sites-v1

$$$$

     RDKit          2D

 19 20  0  0  0  0  0  0  0  0999 V2000
   -3.9766   -1.8157    0.0000 R   0  0  0  0  0  1  0  0  0  0  0  0
   -2.6020   -1.2154    0.0000 N   0  0  0  0  0  0  0  0  0  0  0  0
   -1.3947   -2.1056    0.0000 R   0  0  0  0  0  1  0  0  0  0  0  0
   -2.4346    0.2753    0.0000 C   0  0  0  0  0  0  0  0  0  0  0  0
   -1.0600    0.8756    0.0000 C   0  0  0  0  0  0  0  0  0  0  0  0
    0.1473   -0.0146    0.0000 C   0  0  0  0  0  0  0  0  0  0  0  0
    0.1366   -1.5146    0.0000 C   0  0  0  0  0  0  0  0  0  0  0  0
    1.5599   -1.9882    0.0000 N   0  0  0  0  0  0  0  0  0  0  0  0
    2.0133   -3.4180    0.0000 R   0  0  0  0  0  1  0  0  0  0  0  0
    2.4501   -0.7810    0.0000 C   0  0  0  0  0  0  0  0  0  0  0  0
    3.9430   -0.6348    0.0000 C   0  0  0  0  0  0  0  0  0  0  0  0
    4.5628    0.7312    0.0000 C   0  0  0  0  0  0  0  0  0  0  0  0
    3.6898    1.9509    0.0000 C   0  0  0  0  0  0  0  0  0  0  0  0
    2.1969    1.8047    0.0000 C   0  0  0  0  0  0  0  0  0  0  0  0
    1.3238    3.0245    0.0000 C   0  0  0  0  0  0  0  0  0  0  0  0
    1.5771    0.4388    0.0000 C   0  0  0  0  0  0  0  0  0  0  0  0
   -3.6418    1.1655    0.0000 C   0  0  0  0  0  0  0  0  0  0  0  0
   -5.0164    0.5652    0.0000 R   0  0  0  0  0  1  0  0  0  0  0  0
   -3.4745    2.6562    0.0000 O   0  0  0  0  0  0  0  0  0  0  0  0
  1  2  1  0
  2  3  1  0
  2  4  1  0
  4  5  1  1
  5  6  1  0
  6  7  2  0
  7  8  1  0
  8  9  1  0
  8 10  1  0
 10 11  2  0
 11 12  1  0
 12 13  2  0
 13 14  1  0
 14 15  1  0
 14 16  2  0
  4 17  1  0
 17 18  1  0
 17 19  2  0
 16  6  1  0
 16 10  1  0
M  ISO  4   1   1   3   3   9   4  18   2
M  END
>  <symbol>  (583) 
D_Trp_7Me

>  <m_abbr>  (583) 
D_Trp_7Me

>  <m_name>  (583) 
D-7-Methyltryptophan

>  <m_type>  (583) 
aa

>  <m_subtype>  (583) 
modified

>  <m_Rgroups>  (583) 
[H],[OH],[H],[H]

>  <m_chem_types>  (583) 
1:backbone_n,2:backbone_c,3:backbone_n_mod,4:aromatic_nh

>  <m_activation_policy>  (583) 
canonical-sites-v1

$$$$

     RDKit          2D

 17 17  0  0  0  0  0  0  0  0999 V2000
   -3.4004    2.1682    0.0000 R   0  0  0  0  0  1  0  0  0  0  0  0
   -2.2177    1.2455    0.0000 N   0  0  0  0  0  0  0  0  0  0  0  0
   -0.8274    1.8085    0.0000 R   0  0  0  0  0  1  0  0  0  0  0  0
   -2.4254   -0.2400    0.0000 C   0  0  0  0  0  0  0  0  0  0  0  0
   -1.2428   -1.1627    0.0000 C   0  0  0  0  0  0  0  0  0  0  0  0
    0.1476   -0.5997    0.0000 C   0  0  0  0  0  0  0  0  0  0  0  0
    0.3553    0.8858    0.0000 C   0  0  0  0  0  0  0  0  0  0  0  0
    1.7457    1.4487    0.0000 C   0  0  0  0  0  0  0  0  0  0  0  0
    2.9284    0.5261    0.0000 C   0  0  0  0  0  0  0  0  0  0  0  0
    4.3187    1.0890    0.0000 O   0  0  0  0  0  0  0  0  0  0  0  0
    5.5014    0.1663    0.0000 R   0  0  0  0  0  1  0  0  0  0  0  0
    2.7207   -0.9595    0.0000 C   0  0  0  0  0  0  0  0  0  0  0  0
    3.9033   -1.8821    0.0000 I   0  0  0  0  0  0  0  0  0  0  0  0
    1.3303   -1.5224    0.0000 C   0  0  0  0  0  0  0  0  0  0  0  0
   -3.8158   -0.8029    0.0000 C   0  0  0  0  0  0  0  0  0  0  0  0
   -4.9985    0.1197    0.0000 R   0  0  0  0  0  1  0  0  0  0  0  0
   -4.0235   -2.2885    0.0000 O   0  0  0  0  0  0  0  0  0  0  0  0
  1  2  1  0
  2  3  1  0
  2  4  1  0
  4  5  1  6
  5  6  1  0
  6  7  1  0
  7  8  2  0
  8  9  1  0
  9 10  1  0
 10 11  1  0
  9 12  2  0
 12 13  1  0
 12 14  1  0
  4 15  1  0
 15 16  1  0
 15 17  2  0
 14  6  2  0
M  ISO  4   1   1   3   3  11   4  16   2
M  END
>  <symbol>  (584) 
D_Tyr_3I

>  <m_abbr>  (584) 
D_Tyr_3I

>  <m_name>  (584) 
D-3-Iodotyrosine

>  <m_type>  (584) 
aa

>  <m_subtype>  (584) 
modified

>  <m_Rgroups>  (584) 
[H],[OH],[H],[H]

>  <m_chem_types>  (584) 
1:backbone_n,2:backbone_c,3:backbone_n_mod,4:aryl_phenol_o

>  <m_activation_policy>  (584) 
canonical-sites-v1

$$$$

     RDKit          2D

 19 19  0  0  0  0  0  0  0  0999 V2000
   -3.9374    2.0837    0.0000 R   0  0  0  0  0  1  0  0  0  0  0  0
   -2.7078    1.2246    0.0000 N   0  0  0  0  0  0  0  0  0  0  0  0
   -1.3490    1.8599    0.0000 R   0  0  0  0  0  1  0  0  0  0  0  0
   -2.8370   -0.2698    0.0000 C   0  0  0  0  0  0  0  0  0  0  0  0
   -1.6074   -1.1289    0.0000 C   0  0  0  0  0  0  0  0  0  0  0  0
   -0.2485   -0.4936    0.0000 C   0  0  0  0  0  0  0  0  0  0  0  0
   -0.1194    1.0008    0.0000 C   0  0  0  0  0  0  0  0  0  0  0  0
    1.2394    1.6362    0.0000 C   0  0  0  0  0  0  0  0  0  0  0  0
    2.4691    0.7771    0.0000 C   0  0  0  0  0  0  0  0  0  0  0  0
    3.8279    1.4124    0.0000 O   0  0  0  0  0  0  0  0  0  0  0  0
    3.9571    2.9068    0.0000 R   0  0  0  0  0  1  0  0  0  0  0  0
    2.3399   -0.7173    0.0000 C   0  0  0  0  0  0  0  0  0  0  0  0
    3.5695   -1.5764    0.0000 N   0  0  0  0  0  0  0  0  0  0  0  0
    4.9283   -0.9411    0.0000 O   0  0  0  0  0  0  0  0  0  0  0  0
    3.4403   -3.0709    0.0000 O   0  0  0  0  0  0  0  0  0  0  0  0
    0.9811   -1.3527    0.0000 C   0  0  0  0  0  0  0  0  0  0  0  0
   -4.1958   -0.9052    0.0000 C   0  0  0  0  0  0  0  0  0  0  0  0
   -5.4254   -0.0461    0.0000 R   0  0  0  0  0  1  0  0  0  0  0  0
   -4.3250   -2.3996    0.0000 O   0  0  0  0  0  0  0  0  0  0  0  0
  1  2  1  0
  2  3  1  0
  2  4  1  0
  4  5  1  6
  5  6  1  0
  6  7  1  0
  7  8  2  0
  8  9  1  0
  9 10  1  0
 10 11  1  0
  9 12  2  0
 12 13  1  0
 13 14  2  0
 13 15  1  0
 12 16  1  0
  4 17  1  0
 17 18  1  0
 17 19  2  0
 16  6  2  0
M  CHG  2  13   1  15  -1
M  ISO  4   1   1   3   3  11   4  18   2
M  END
>  <symbol>  (585) 
D_Tyr_3NO2

>  <m_abbr>  (585) 
D_Tyr_3NO2

>  <m_name>  (585) 
D-3-Nitrotyrosine

>  <m_type>  (585) 
aa

>  <m_subtype>  (585) 
modified

>  <m_Rgroups>  (585) 
[H],[OH],[H],[H]

>  <m_chem_types>  (585) 
1:backbone_n,2:backbone_c,3:backbone_n_mod,4:aryl_phenol_o

>  <m_activation_policy>  (585) 
canonical-sites-v1

$$$$

     RDKit          2D

 22 23  0  0  0  0  0  0  0  0999 V2000
   -5.2446    2.3533    0.0000 R   0  0  0  0  0  1  0  0  0  0  0  0
   -4.1767    1.2999    0.0000 N   0  0  0  0  0  0  0  0  0  0  0  0
   -2.7305    1.6980    0.0000 R   0  0  0  0  0  1  0  0  0  0  0  0
   -4.5550   -0.1516    0.0000 C   0  0  0  0  0  0  0  0  0  0  0  0
   -3.4871   -1.2050    0.0000 C   0  0  0  0  0  0  0  0  0  0  0  0
   -2.0409   -0.8068    0.0000 C   0  0  0  0  0  0  0  0  0  0  0  0
   -1.6626    0.6447    0.0000 C   0  0  0  0  0  0  0  0  0  0  0  0
   -0.2164    1.0428    0.0000 C   0  0  0  0  0  0  0  0  0  0  0  0
    0.8515   -0.0105    0.0000 C   0  0  0  0  0  0  0  0  0  0  0  0
    2.2977    0.3876    0.0000 O   0  0  0  0  0  0  0  0  0  0  0  0
    3.3656   -0.6658    0.0000 C   0  0  0  0  0  0  0  0  0  0  0  0
    4.8118   -0.2676    0.0000 C   0  0  0  0  0  0  0  0  0  0  0  0
    5.8797   -1.3210    0.0000 C   0  0  0  0  0  0  0  0  0  0  0  0
    7.3259   -0.9228    0.0000 C   0  0  0  0  0  0  0  0  0  0  0  0
    7.7042    0.5287    0.0000 C   0  0  0  0  0  0  0  0  0  0  0  0
    6.6363    1.5820    0.0000 C   0  0  0  0  0  0  0  0  0  0  0  0
    5.1901    1.1839    0.0000 C   0  0  0  0  0  0  0  0  0  0  0  0
    0.4732   -1.4621    0.0000 C   0  0  0  0  0  0  0  0  0  0  0  0
   -0.9730   -1.8602    0.0000 C   0  0  0  0  0  0  0  0  0  0  0  0
   -6.0012   -0.5498    0.0000 C   0  0  0  0  0  0  0  0  0  0  0  0
   -7.0691    0.5036    0.0000 R   0  0  0  0  0  1  0  0  0  0  0  0
   -6.3794   -2.0013    0.0000 O   0  0  0  0  0  0  0  0  0  0  0  0
  1  2  1  0
  2  3  1  0
  2  4  1  0
  4  5  1  1
  5  6  1  0
  6  7  1  0
  7  8  2  0
  8  9  1  0
  9 10  1  0
 10 11  1  0
 11 12  1  0
 12 13  2  0
 13 14  1  0
 14 15  2  0
 15 16  1  0
 16 17  2  0
  9 18  2  0
 18 19  1  0
  4 20  1  0
 20 21  1  0
 20 22  2  0
 19  6  2  0
 17 12  1  0
M  ISO  3   1   1   3   3  21   2
M  END
>  <symbol>  (586) 
Tyr_OBn

>  <m_abbr>  (586) 
Tyr_OBn

>  <m_name>  (586) 
L-O-Benzyl-tyrosine

>  <m_type>  (586) 
aa

>  <m_subtype>  (586) 
modified

>  <m_Rgroups>  (586) 
[H],[OH],[H]

>  <m_chem_types>  (586) 
1:backbone_n,2:backbone_c,3:backbone_n_mod

>  <m_activation_policy>  (586) 
canonical-sites-v1

$$$$

     RDKit          2D

 16 16  0  0  0  0  0  0  0  0999 V2000
   -3.7273    2.1932    0.0000 R   0  0  0  0  0  1  0  0  0  0  0  0
   -2.4953    1.3376    0.0000 N   0  0  0  0  0  0  0  0  0  0  0  0
   -1.1383    1.9767    0.0000 R   0  0  0  0  0  1  0  0  0  0  0  0
   -2.6203   -0.1572    0.0000 C   0  0  0  0  0  0  0  0  0  0  0  0
   -1.3883   -1.0129    0.0000 C   0  0  0  0  0  0  0  0  0  0  0  0
   -0.0312   -0.3737    0.0000 O   0  0  0  0  0  0  0  0  0  0  0  0
    1.2008   -1.2293    0.0000 C   0  0  0  0  0  0  0  0  0  0  0  0
    2.5578   -0.5902    0.0000 C   0  0  0  0  0  0  0  0  0  0  0  0
    2.6828    0.9046    0.0000 C   0  0  0  0  0  0  0  0  0  0  0  0
    4.0398    1.5438    0.0000 C   0  0  0  0  0  0  0  0  0  0  0  0
    5.2718    0.6882    0.0000 C   0  0  0  0  0  0  0  0  0  0  0  0
    5.1468   -0.8066    0.0000 C   0  0  0  0  0  0  0  0  0  0  0  0
    3.7898   -1.4458    0.0000 C   0  0  0  0  0  0  0  0  0  0  0  0
   -3.9773   -0.7964    0.0000 C   0  0  0  0  0  0  0  0  0  0  0  0
   -5.2093    0.0592    0.0000 R   0  0  0  0  0  1  0  0  0  0  0  0
   -4.1023   -2.2912    0.0000 O   0  0  0  0  0  0  0  0  0  0  0  0
  1  2  1  0
  2  3  1  0
  2  4  1  0
  4  5  1  1
  5  6  1  0
  6  7  1  0
  7  8  1  0
  8  9  2  0
  9 10  1  0
 10 11  2  0
 11 12  1  0
 12 13  2  0
  4 14  1  0
 14 15  1  0
 14 16  2  0
 13  8  1  0
M  ISO  3   1   1   3   3  15   2
M  END
>  <symbol>  (587) 
Ser_OBn

>  <m_abbr>  (587) 
Ser_OBn

>  <m_name>  (587) 
L-O-Benzyl-serine

>  <m_type>  (587) 
aa

>  <m_subtype>  (587) 
modified

>  <m_Rgroups>  (587) 
[H],[OH],[H]

>  <m_chem_types>  (587) 
1:backbone_n,2:backbone_c,3:backbone_n_mod

>  <m_activation_policy>  (587) 
canonical-sites-v1

$$$$

     RDKit          2D

 10 10  0  0  0  0  0  0  0  0999 V2000
   -0.6492   -2.4549    0.0000 R   0  0  0  0  0  1  0  0  0  0  0  0
    0.1568   -1.1898    0.0000 N   0  0  0  0  0  0  0  0  0  0  0  0
    1.6540   -1.0983    0.0000 C   0  0  0  0  0  0  0  0  0  0  0  0
    2.0296    0.3539    0.0000 C   0  0  0  0  0  0  0  0  0  0  0  0
    3.4252    0.9037    0.0000 C   0  0  0  0  0  0  0  0  0  0  0  0
    0.7645    1.1599    0.0000 C   0  0  0  0  0  0  0  0  0  0  0  0
   -0.3930    0.2058    0.0000 C   0  0  0  0  0  0  0  0  0  0  0  0
   -1.8452    0.5814    0.0000 C   0  0  0  0  0  0  0  0  0  0  0  0
   -2.2460    2.0268    0.0000 R   0  0  0  0  0  1  0  0  0  0  0  0
   -2.8966   -0.4885    0.0000 O   0  0  0  0  0  0  0  0  0  0  0  0
  1  2  1  0
  2  3  1  0
  3  4  1  0
  4  5  1  6
  4  6  1  0
  6  7  1  0
  7  8  1  6
  8  9  1  0
  8 10  2  0
  7  2  1  0
M  ISO  2   1   1   9   2
M  END
>  <symbol>  (588) 
Pro_4Me_t

>  <m_abbr>  (588) 
Pro_4Me_t

>  <m_name>  (588) 
trans-4-Methyl-L-proline (2S,4R)

>  <m_type>  (588) 
aa

>  <m_subtype>  (588) 
modified

>  <m_Rgroups>  (588) 
[H],[OH]

>  <m_chem_types>  (588) 
1:backbone_n,2:backbone_c

>  <m_activation_policy>  (588) 
canonical-sites-v1

$$$$

     RDKit          2D

 10 10  0  0  0  0  0  0  0  0999 V2000
   -0.6492   -2.4549    0.0000 R   0  0  0  0  0  1  0  0  0  0  0  0
    0.1568   -1.1898    0.0000 N   0  0  0  0  0  0  0  0  0  0  0  0
    1.6540   -1.0983    0.0000 C   0  0  0  0  0  0  0  0  0  0  0  0
    2.0296    0.3539    0.0000 C   0  0  0  0  0  0  0  0  0  0  0  0
    3.4252    0.9037    0.0000 C   0  0  0  0  0  0  0  0  0  0  0  0
    0.7645    1.1599    0.0000 C   0  0  0  0  0  0  0  0  0  0  0  0
   -0.3930    0.2058    0.0000 C   0  0  0  0  0  0  0  0  0  0  0  0
   -1.8452    0.5814    0.0000 C   0  0  0  0  0  0  0  0  0  0  0  0
   -2.2460    2.0268    0.0000 R   0  0  0  0  0  1  0  0  0  0  0  0
   -2.8966   -0.4885    0.0000 O   0  0  0  0  0  0  0  0  0  0  0  0
  1  2  1  0
  2  3  1  0
  3  4  1  0
  4  5  1  1
  4  6  1  0
  6  7  1  0
  7  8  1  6
  8  9  1  0
  8 10  2  0
  7  2  1  0
M  ISO  2   1   1   9   2
M  END
>  <symbol>  (589) 
Pro_4Me_c

>  <m_abbr>  (589) 
Pro_4Me_c

>  <m_name>  (589) 
cis-4-Methyl-L-proline (2S,4S)

>  <m_type>  (589) 
aa

>  <m_subtype>  (589) 
modified

>  <m_Rgroups>  (589) 
[H],[OH]

>  <m_chem_types>  (589) 
1:backbone_n,2:backbone_c

>  <m_activation_policy>  (589) 
canonical-sites-v1

$$$$

     RDKit          2D

 12 12  0  0  0  0  0  0  0  0999 V2000
   -1.7208   -2.4196    0.0000 R   0  0  0  0  0  1  0  0  0  0  0  0
   -0.7333   -1.2905    0.0000 N   0  0  0  0  0  0  0  0  0  0  0  0
    0.7606   -1.4257    0.0000 C   0  0  0  0  0  0  0  0  0  0  0  0
    1.3508   -0.0467    0.0000 C   0  0  0  0  0  0  0  0  0  0  0  0
    2.8134    0.2864    0.0000 N   0  0  0  0  0  0  0  0  0  0  0  0
    3.8331   -0.8137    0.0000 R   0  0  0  0  0  1  0  0  0  0  0  0
    3.2562    1.7195    0.0000 R   0  0  0  0  0  1  0  0  0  0  0  0
    0.2217    0.9408    0.0000 C   0  0  0  0  0  0  0  0  0  0  0  0
   -1.0664    0.1721    0.0000 C   0  0  0  0  0  0  0  0  0  0  0  0
   -2.4454    0.7623    0.0000 C   0  0  0  0  0  0  0  0  0  0  0  0
   -2.6237    2.2517    0.0000 R   0  0  0  0  0  1  0  0  0  0  0  0
   -3.6460   -0.1368    0.0000 O   0  0  0  0  0  0  0  0  0  0  0  0
  1  2  1  0
  2  3  1  0
  3  4  1  0
  4  5  1  6
  5  6  1  0
  5  7  1  0
  4  8  1  0
  8  9  1  0
  9 10  1  6
 10 11  1  0
 10 12  2  0
  9  2  1  0
M  ISO  4   1   1   6   4   7   5  11   2
M  END
>  <symbol>  (590) 
Pro_4NH2_t

>  <m_abbr>  (590) 
Pro_4NH2_t

>  <m_name>  (590) 
trans-4-Amino-L-proline (2S,4R)

>  <m_type>  (590) 
aa

>  <m_subtype>  (590) 
modified

>  <m_Rgroups>  (590) 
[H],[OH],None,[H],[H]

>  <m_chem_types>  (590) 
1:backbone_n,2:backbone_c,4:amine_primary,5:amine_primary

>  <m_activation_policy>  (590) 
canonical-sites-v1

$$$$

     RDKit          2D

 12 12  0  0  0  0  0  0  0  0999 V2000
   -1.7208   -2.4196    0.0000 R   0  0  0  0  0  1  0  0  0  0  0  0
   -0.7333   -1.2905    0.0000 N   0  0  0  0  0  0  0  0  0  0  0  0
    0.7606   -1.4257    0.0000 C   0  0  0  0  0  0  0  0  0  0  0  0
    1.3508   -0.0467    0.0000 C   0  0  0  0  0  0  0  0  0  0  0  0
    2.8134    0.2864    0.0000 N   0  0  0  0  0  0  0  0  0  0  0  0
    3.8331   -0.8137    0.0000 R   0  0  0  0  0  1  0  0  0  0  0  0
    3.2562    1.7195    0.0000 R   0  0  0  0  0  1  0  0  0  0  0  0
    0.2217    0.9408    0.0000 C   0  0  0  0  0  0  0  0  0  0  0  0
   -1.0664    0.1721    0.0000 C   0  0  0  0  0  0  0  0  0  0  0  0
   -2.4454    0.7623    0.0000 C   0  0  0  0  0  0  0  0  0  0  0  0
   -2.6237    2.2517    0.0000 R   0  0  0  0  0  1  0  0  0  0  0  0
   -3.6460   -0.1368    0.0000 O   0  0  0  0  0  0  0  0  0  0  0  0
  1  2  1  0
  2  3  1  0
  3  4  1  0
  4  5  1  1
  5  6  1  0
  5  7  1  0
  4  8  1  0
  8  9  1  0
  9 10  1  6
 10 11  1  0
 10 12  2  0
  9  2  1  0
M  ISO  4   1   1   6   4   7   5  11   2
M  END
>  <symbol>  (591) 
Pro_4NH2_c

>  <m_abbr>  (591) 
Pro_4NH2_c

>  <m_name>  (591) 
cis-4-Amino-L-proline (2S,4S)

>  <m_type>  (591) 
aa

>  <m_subtype>  (591) 
modified

>  <m_Rgroups>  (591) 
[H],[OH],None,[H],[H]

>  <m_chem_types>  (591) 
1:backbone_n,2:backbone_c,4:amine_primary,5:amine_primary

>  <m_activation_policy>  (591) 
canonical-sites-v1

$$$$

     RDKit          2D

 12 11  0  0  0  0  0  0  0  0999 V2000
   -3.5281   -0.5638    0.0000 R   0  0  0  0  0  1  0  0  0  0  0  0
   -2.1179   -1.0748    0.0000 N   0  0  0  0  0  0  0  0  0  0  0  0
   -1.8553   -2.5517    0.0000 R   0  0  0  0  0  1  0  0  0  0  0  0
   -0.9702   -0.1090    0.0000 C   0  0  0  0  0  0  0  0  0  0  0  0
    0.4401   -0.6200    0.0000 C   0  0  0  0  0  0  0  0  0  0  0  0
    1.5878    0.3458    0.0000 C   0  0  0  0  0  0  0  0  0  0  0  0
    2.9981   -0.1653    0.0000 C   0  0  0  0  0  0  0  0  0  0  0  0
    4.1458    0.8005    0.0000 C   0  0  0  0  0  0  0  0  0  0  0  0
    3.2606   -1.6421    0.0000 C   0  0  0  0  0  0  0  0  0  0  0  0
   -1.2327    1.3678    0.0000 C   0  0  0  0  0  0  0  0  0  0  0  0
   -0.0850    2.3336    0.0000 R   0  0  0  0  0  1  0  0  0  0  0  0
   -2.6430    1.8789    0.0000 O   0  0  0  0  0  0  0  0  0  0  0  0
  1  2  1  0
  2  3  1  0
  2  4  1  0
  4  5  1  6
  5  6  1  0
  6  7  1  0
  7  8  1  0
  7  9  1  0
  4 10  1  0
 10 11  1  0
 10 12  2  0
M  ISO  3   1   1   3   3  11   2
M  END
>  <symbol>  (592) 
hLeu

>  <m_abbr>  (592) 
hLeu

>  <m_name>  (592) 
L-Homoleucine (2-amino-5-methylhexanoic acid)

>  <m_type>  (592) 
aa

>  <m_subtype>  (592) 
modified

>  <m_Rgroups>  (592) 
[H],[OH],[H]

>  <m_chem_types>  (592) 
1:backbone_n,2:backbone_c,3:backbone_n_mod

>  <m_activation_policy>  (592) 
canonical-sites-v1

$$$$

     RDKit          2D

 12 11  0  0  0  0  0  0  0  0999 V2000
   -3.7710   -0.3727    0.0000 R   0  0  0  0  0  1  0  0  0  0  0  0
   -2.4149   -1.0137    0.0000 N   0  0  0  0  0  0  0  0  0  0  0  0
   -2.2920   -2.5087    0.0000 R   0  0  0  0  0  1  0  0  0  0  0  0
   -1.1817   -0.1598    0.0000 C   0  0  0  0  0  0  0  0  0  0  0  0
    0.1744   -0.8009    0.0000 C   0  0  0  0  0  0  0  0  0  0  0  0
    1.4077    0.0530    0.0000 C   0  0  0  0  0  0  0  0  0  0  0  0
    2.7638   -0.5881    0.0000 C   0  0  0  0  0  0  0  0  0  0  0  0
    3.9970    0.2658    0.0000 S   0  0  0  0  0  0  0  0  0  0  0  0
    5.3531   -0.3752    0.0000 C   0  0  0  0  0  0  0  0  0  0  0  0
   -1.3045    1.3351    0.0000 C   0  0  0  0  0  0  0  0  0  0  0  0
   -0.0713    2.1890    0.0000 R   0  0  0  0  0  1  0  0  0  0  0  0
   -2.6607    1.9762    0.0000 O   0  0  0  0  0  0  0  0  0  0  0  0
  1  2  1  0
  2  3  1  0
  2  4  1  0
  4  5  1  6
  5  6  1  0
  6  7  1  0
  7  8  1  0
  8  9  1  0
  4 10  1  0
 10 11  1  0
 10 12  2  0
M  ISO  3   1   1   3   3  11   2
M  END
>  <symbol>  (593) 
hMet

>  <m_abbr>  (593) 
hMet

>  <m_name>  (593) 
L-Homomethionine (2-amino-5-methylthiopentanoic acid)

>  <m_type>  (593) 
aa

>  <m_subtype>  (593) 
modified

>  <m_Rgroups>  (593) 
[H],[OH],[H]

>  <m_chem_types>  (593) 
1:backbone_n,2:backbone_c,3:backbone_n_mod

>  <m_activation_policy>  (593) 
canonical-sites-v1

$$$$

     RDKit          2D

 12 11  0  0  0  0  0  0  0  0999 V2000
   -3.3474    0.4984    0.0000 R   0  0  0  0  0  1  0  0  0  0  0  0
   -2.3034   -0.5787    0.0000 N   0  0  0  0  0  0  0  0  0  0  0  0
   -2.7142   -2.0214    0.0000 R   0  0  0  0  0  1  0  0  0  0  0  0
   -0.8486   -0.2132    0.0000 C   0  0  0  0  0  0  0  0  0  0  0  0
    0.1953   -1.2903    0.0000 C   0  0  0  0  0  0  0  0  0  0  0  0
    1.6501   -0.9248    0.0000 C   0  0  0  0  0  0  0  0  0  0  0  0
    2.6940   -2.0019    0.0000 C   0  0  0  0  0  0  0  0  0  0  0  0
    2.0609    0.5178    0.0000 C   0  0  0  0  0  0  0  0  0  0  0  0
    3.5157    0.8834    0.0000 C   0  0  0  0  0  0  0  0  0  0  0  0
   -0.4378    1.2294    0.0000 C   0  0  0  0  0  0  0  0  0  0  0  0
    1.0170    1.5949    0.0000 R   0  0  0  0  0  1  0  0  0  0  0  0
   -1.4817    2.3065    0.0000 O   0  0  0  0  0  0  0  0  0  0  0  0
  1  2  1  0
  2  3  1  0
  2  4  1  0
  4  5  1  6
  5  6  1  0
  6  7  1  0
  6  8  1  0
  8  9  1  0
  4 10  1  0
 10 11  1  0
 10 12  2  0
M  ISO  3   1   1   3   3  11   2
M  END
>  <symbol>  (594) 
hIle

>  <m_abbr>  (594) 
hIle

>  <m_name>  (594) 
L-Homoisoleucine (2-amino-3-methylhexanoic acid)

>  <m_type>  (594) 
aa

>  <m_subtype>  (594) 
modified

>  <m_Rgroups>  (594) 
[H],[OH],[H]

>  <m_chem_types>  (594) 
1:backbone_n,2:backbone_c,3:backbone_n_mod

>  <m_activation_policy>  (594) 
canonical-sites-v1

$$$$

     RDKit          2D

 12 11  0  0  0  0  0  0  0  0999 V2000
   -3.7710   -0.3727    0.0000 R   0  0  0  0  0  1  0  0  0  0  0  0
   -2.4149   -1.0137    0.0000 N   0  0  0  0  0  0  0  0  0  0  0  0
   -2.2920   -2.5087    0.0000 R   0  0  0  0  0  1  0  0  0  0  0  0
   -1.1817   -0.1598    0.0000 C   0  0  0  0  0  0  0  0  0  0  0  0
    0.1744   -0.8009    0.0000 C   0  0  0  0  0  0  0  0  0  0  0  0
    1.4077    0.0530    0.0000 C   0  0  0  0  0  0  0  0  0  0  0  0
    2.7638   -0.5881    0.0000 C   0  0  0  0  0  0  0  0  0  0  0  0
    3.9970    0.2658    0.0000 C   0  0  0  0  0  0  0  0  0  0  0  0
    5.3531   -0.3752    0.0000 C   0  0  0  0  0  0  0  0  0  0  0  0
   -1.3045    1.3351    0.0000 C   0  0  0  0  0  0  0  0  0  0  0  0
   -0.0713    2.1890    0.0000 R   0  0  0  0  0  1  0  0  0  0  0  0
   -2.6607    1.9762    0.0000 O   0  0  0  0  0  0  0  0  0  0  0  0
  1  2  1  0
  2  3  1  0
  2  4  1  0
  4  5  1  6
  5  6  1  0
  6  7  1  0
  7  8  1  0
  8  9  1  0
  4 10  1  0
 10 11  1  0
 10 12  2  0
M  ISO  3   1   1   3   3  11   2
M  END
>  <symbol>  (595) 
hNle

>  <m_abbr>  (595) 
hNle

>  <m_name>  (595) 
L-HomonÂ­orleucine (2-aminoheptanoic acid)

>  <m_type>  (595) 
aa

>  <m_subtype>  (595) 
modified

>  <m_Rgroups>  (595) 
[H],[OH],[H]

>  <m_chem_types>  (595) 
1:backbone_n,2:backbone_c,3:backbone_n_mod

>  <m_activation_policy>  (595) 
canonical-sites-v1

$$$$

     RDKit          2D

 11 10  0  0  0  0  0  0  0  0999 V2000
   -3.3018   -0.2248    0.0000 R   0  0  0  0  0  1  0  0  0  0  0  0
   -1.9832   -0.9398    0.0000 N   0  0  0  0  0  0  0  0  0  0  0  0
   -1.9430   -2.4392    0.0000 R   0  0  0  0  0  1  0  0  0  0  0  0
   -0.7047   -0.1553    0.0000 C   0  0  0  0  0  0  0  0  0  0  0  0
    0.6140   -0.8702    0.0000 C   0  0  0  0  0  0  0  0  0  0  0  0
    1.8925   -0.0858    0.0000 C   0  0  0  0  0  0  0  0  0  0  0  0
    3.2111   -0.8007    0.0000 O   0  0  0  0  0  0  0  0  0  0  0  0
    4.4896   -0.0162    0.0000 R   0  0  0  0  0  1  0  0  0  0  0  0
   -0.7448    1.3442    0.0000 C   0  0  0  0  0  0  0  0  0  0  0  0
    0.5337    2.1287    0.0000 R   0  0  0  0  0  1  0  0  0  0  0  0
   -2.0634    2.0592    0.0000 O   0  0  0  0  0  0  0  0  0  0  0  0
  1  2  1  0
  2  3  1  0
  2  4  1  0
  4  5  1  6
  5  6  1  0
  6  7  1  0
  7  8  1  0
  4  9  1  0
  9 10  1  0
  9 11  2  0
M  ISO  4   1   1   3   3   8   4  10   2
M  END
>  <symbol>  (596) 
hSer

>  <m_abbr>  (596) 
hSer

>  <m_name>  (596) 
L-Homoserine (2-amino-4-hydroxybutanoic acid)

>  <m_type>  (596) 
aa

>  <m_subtype>  (596) 
modified

>  <m_Rgroups>  (596) 
[H],[OH],[H],[H]

>  <m_chem_types>  (596) 
1:backbone_n,2:backbone_c,3:backbone_n_mod,4:hydroxyl

>  <m_activation_policy>  (596) 
canonical-sites-v1

$$$$

     RDKit          2D

 11 10  0  0  0  0  0  0  0  0999 V2000
   -3.3018   -0.2248    0.0000 R   0  0  0  0  0  1  0  0  0  0  0  0
   -1.9832   -0.9398    0.0000 N   0  0  0  0  0  0  0  0  0  0  0  0
   -1.9430   -2.4392    0.0000 R   0  0  0  0  0  1  0  0  0  0  0  0
   -0.7047   -0.1553    0.0000 C   0  0  0  0  0  0  0  0  0  0  0  0
    0.6140   -0.8702    0.0000 C   0  0  0  0  0  0  0  0  0  0  0  0
    1.8925   -0.0858    0.0000 C   0  0  0  0  0  0  0  0  0  0  0  0
    3.2111   -0.8007    0.0000 S   0  0  0  0  0  0  0  0  0  0  0  0
    4.4896   -0.0162    0.0000 R   0  0  0  0  0  1  0  0  0  0  0  0
   -0.7448    1.3442    0.0000 C   0  0  0  0  0  0  0  0  0  0  0  0
    0.5337    2.1287    0.0000 R   0  0  0  0  0  1  0  0  0  0  0  0
   -2.0634    2.0592    0.0000 O   0  0  0  0  0  0  0  0  0  0  0  0
  1  2  1  0
  2  3  1  0
  2  4  1  0
  4  5  1  6
  5  6  1  0
  6  7  1  0
  7  8  1  0
  4  9  1  0
  9 10  1  0
  9 11  2  0
M  ISO  4   1   1   3   3   8   4  10   2
M  END
>  <symbol>  (597) 
hCys

>  <m_abbr>  (597) 
hCys

>  <m_name>  (597) 
L-Homocysteine

>  <m_type>  (597) 
aa

>  <m_subtype>  (597) 
modified

>  <m_Rgroups>  (597) 
[H],[OH],[H],[H]

>  <m_chem_types>  (597) 
1:backbone_n,2:backbone_c,3:backbone_n_mod,4:thiol

>  <m_activation_policy>  (597) 
canonical-sites-v1

$$$$

     RDKit          2D

 18 17  0  0  0  0  0  0  0  0999 V2000
   -5.8137   -0.9999    0.0000 R   0  0  0  0  0  1  0  0  0  0  0  0
   -4.3494   -1.3253    0.0000 N   0  0  0  0  0  0  0  0  0  0  0  0
   -3.8990   -2.7561    0.0000 R   0  0  0  0  0  1  0  0  0  0  0  0
   -3.3355   -0.2199    0.0000 C   0  0  0  0  0  0  0  0  0  0  0  0
   -1.8712   -0.5453    0.0000 C   0  0  0  0  0  0  0  0  0  0  0  0
   -0.8572    0.5601    0.0000 C   0  0  0  0  0  0  0  0  0  0  0  0
    0.6070    0.2348    0.0000 C   0  0  0  0  0  0  0  0  0  0  0  0
    1.6210    1.3402    0.0000 C   0  0  0  0  0  0  0  0  0  0  0  0
    3.0853    1.0148    0.0000 N   0  0  0  0  0  0  0  0  0  0  0  0
    4.0992    2.1202    0.0000 R   0  0  0  0  0  1  0  0  0  0  0  0
    3.5356   -0.4160    0.0000 C   0  0  0  0  0  0  0  0  0  0  0  0
    2.5217   -1.5214    0.0000 O   0  0  0  0  0  0  0  0  0  0  0  0
    4.9999   -0.7414    0.0000 N   0  0  0  0  0  0  0  0  0  0  0  0
    5.4502   -2.1722    0.0000 R   0  0  0  0  0  1  0  0  0  0  0  0
    6.0138    0.3640    0.0000 R   0  0  0  0  0  1  0  0  0  0  0  0
   -3.7858    1.2109    0.0000 C   0  0  0  0  0  0  0  0  0  0  0  0
   -2.7719    2.3163    0.0000 R   0  0  0  0  0  1  0  0  0  0  0  0
   -5.2501    1.5363    0.0000 O   0  0  0  0  0  0  0  0  0  0  0  0
  1  2  1  0
  2  3  1  0
  2  4  1  0
  4  5  1  6
  5  6  1  0
  6  7  1  0
  7  8  1  0
  8  9  1  0
  9 10  1  0
  9 11  1  0
 11 12  2  0
 11 13  1  0
 13 14  1  0
 13 15  1  0
  4 16  1  0
 16 17  1  0
 16 18  2  0
M  ISO  6   1   1   3   3  10   6  14   4  15   5  17   2
M  END
>  <symbol>  (598) 
hCit

>  <m_abbr>  (598) 
hCit

>  <m_name>  (598) 
L-Homocitrulline (Nomega-ureido)

>  <m_type>  (598) 
aa

>  <m_subtype>  (598) 
modified

>  <m_Rgroups>  (598) 
[H],[OH],[H],[H],[H],[H]

>  <m_chem_types>  (598) 
1:backbone_n,2:backbone_c,3:backbone_n_mod,4:urea_nh,5:urea_nh,6:urea_nh

>  <m_activation_policy>  (598) 
canonical-sites-v1

$$$$

     RDKit          2D

 12 11  0  0  0  0  0  0  0  0999 V2000
   -3.5281   -0.5638    0.0000 R   0  0  0  0  0  1  0  0  0  0  0  0
   -2.1179   -1.0748    0.0000 N   0  0  0  0  0  0  0  0  0  0  0  0
   -1.8553   -2.5517    0.0000 R   0  0  0  0  0  1  0  0  0  0  0  0
   -0.9702   -0.1090    0.0000 C   0  0  0  0  0  0  0  0  0  0  0  0
    0.4401   -0.6200    0.0000 C   0  0  0  0  0  0  0  0  0  0  0  0
    1.5878    0.3458    0.0000 C   0  0  0  0  0  0  0  0  0  0  0  0
    2.9981   -0.1653    0.0000 C   0  0  0  0  0  0  0  0  0  0  0  0
    4.1458    0.8005    0.0000 C   0  0  0  0  0  0  0  0  0  0  0  0
    3.2606   -1.6421    0.0000 C   0  0  0  0  0  0  0  0  0  0  0  0
   -1.2327    1.3678    0.0000 C   0  0  0  0  0  0  0  0  0  0  0  0
   -0.0850    2.3336    0.0000 R   0  0  0  0  0  1  0  0  0  0  0  0
   -2.6430    1.8789    0.0000 O   0  0  0  0  0  0  0  0  0  0  0  0
  1  2  1  0
  2  3  1  0
  2  4  1  0
  4  5  1  1
  5  6  1  0
  6  7  1  0
  7  8  1  0
  7  9  1  0
  4 10  1  0
 10 11  1  0
 10 12  2  0
M  ISO  3   1   1   3   3  11   2
M  END
>  <symbol>  (599) 
D_hLeu

>  <m_abbr>  (599) 
D_hLeu

>  <m_name>  (599) 
D-Homoleucine

>  <m_type>  (599) 
aa

>  <m_subtype>  (599) 
modified

>  <m_Rgroups>  (599) 
[H],[OH],[H]

>  <m_chem_types>  (599) 
1:backbone_n,2:backbone_c,3:backbone_n_mod

>  <m_activation_policy>  (599) 
canonical-sites-v1

$$$$

     RDKit          2D

 12 11  0  0  0  0  0  0  0  0999 V2000
   -3.7710   -0.3727    0.0000 R   0  0  0  0  0  1  0  0  0  0  0  0
   -2.4149   -1.0137    0.0000 N   0  0  0  0  0  0  0  0  0  0  0  0
   -2.2920   -2.5087    0.0000 R   0  0  0  0  0  1  0  0  0  0  0  0
   -1.1817   -0.1598    0.0000 C   0  0  0  0  0  0  0  0  0  0  0  0
    0.1744   -0.8009    0.0000 C   0  0  0  0  0  0  0  0  0  0  0  0
    1.4077    0.0530    0.0000 C   0  0  0  0  0  0  0  0  0  0  0  0
    2.7638   -0.5881    0.0000 C   0  0  0  0  0  0  0  0  0  0  0  0
    3.9970    0.2658    0.0000 S   0  0  0  0  0  0  0  0  0  0  0  0
    5.3531   -0.3752    0.0000 C   0  0  0  0  0  0  0  0  0  0  0  0
   -1.3045    1.3351    0.0000 C   0  0  0  0  0  0  0  0  0  0  0  0
   -0.0713    2.1890    0.0000 R   0  0  0  0  0  1  0  0  0  0  0  0
   -2.6607    1.9762    0.0000 O   0  0  0  0  0  0  0  0  0  0  0  0
  1  2  1  0
  2  3  1  0
  2  4  1  0
  4  5  1  1
  5  6  1  0
  6  7  1  0
  7  8  1  0
  8  9  1  0
  4 10  1  0
 10 11  1  0
 10 12  2  0
M  ISO  3   1   1   3   3  11   2
M  END
>  <symbol>  (600) 
D_hMet

>  <m_abbr>  (600) 
D_hMet

>  <m_name>  (600) 
D-Homomethionine

>  <m_type>  (600) 
aa

>  <m_subtype>  (600) 
modified

>  <m_Rgroups>  (600) 
[H],[OH],[H]

>  <m_chem_types>  (600) 
1:backbone_n,2:backbone_c,3:backbone_n_mod

>  <m_activation_policy>  (600) 
canonical-sites-v1

$$$$

     RDKit          2D

 12 11  0  0  0  0  0  0  0  0999 V2000
   -3.3474    0.4984    0.0000 R   0  0  0  0  0  1  0  0  0  0  0  0
   -2.3034   -0.5787    0.0000 N   0  0  0  0  0  0  0  0  0  0  0  0
   -2.7142   -2.0214    0.0000 R   0  0  0  0  0  1  0  0  0  0  0  0
   -0.8486   -0.2132    0.0000 C   0  0  0  0  0  0  0  0  0  0  0  0
    0.1953   -1.2903    0.0000 C   0  0  0  0  0  0  0  0  0  0  0  0
    1.6501   -0.9248    0.0000 C   0  0  0  0  0  0  0  0  0  0  0  0
    2.6940   -2.0019    0.0000 C   0  0  0  0  0  0  0  0  0  0  0  0
    2.0609    0.5178    0.0000 C   0  0  0  0  0  0  0  0  0  0  0  0
    3.5157    0.8834    0.0000 C   0  0  0  0  0  0  0  0  0  0  0  0
   -0.4378    1.2294    0.0000 C   0  0  0  0  0  0  0  0  0  0  0  0
    1.0170    1.5949    0.0000 R   0  0  0  0  0  1  0  0  0  0  0  0
   -1.4817    2.3065    0.0000 O   0  0  0  0  0  0  0  0  0  0  0  0
  1  2  1  0
  2  3  1  0
  2  4  1  0
  4  5  1  1
  5  6  1  0
  6  7  1  0
  6  8  1  0
  8  9  1  0
  4 10  1  0
 10 11  1  0
 10 12  2  0
M  ISO  3   1   1   3   3  11   2
M  END
>  <symbol>  (601) 
D_hIle

>  <m_abbr>  (601) 
D_hIle

>  <m_name>  (601) 
D-Homoisoleucine

>  <m_type>  (601) 
aa

>  <m_subtype>  (601) 
modified

>  <m_Rgroups>  (601) 
[H],[OH],[H]

>  <m_chem_types>  (601) 
1:backbone_n,2:backbone_c,3:backbone_n_mod

>  <m_activation_policy>  (601) 
canonical-sites-v1

$$$$

     RDKit          2D

 12 11  0  0  0  0  0  0  0  0999 V2000
   -3.7710   -0.3727    0.0000 R   0  0  0  0  0  1  0  0  0  0  0  0
   -2.4149   -1.0137    0.0000 N   0  0  0  0  0  0  0  0  0  0  0  0
   -2.2920   -2.5087    0.0000 R   0  0  0  0  0  1  0  0  0  0  0  0
   -1.1817   -0.1598    0.0000 C   0  0  0  0  0  0  0  0  0  0  0  0
    0.1744   -0.8009    0.0000 C   0  0  0  0  0  0  0  0  0  0  0  0
    1.4077    0.0530    0.0000 C   0  0  0  0  0  0  0  0  0  0  0  0
    2.7638   -0.5881    0.0000 C   0  0  0  0  0  0  0  0  0  0  0  0
    3.9970    0.2658    0.0000 C   0  0  0  0  0  0  0  0  0  0  0  0
    5.3531   -0.3752    0.0000 C   0  0  0  0  0  0  0  0  0  0  0  0
   -1.3045    1.3351    0.0000 C   0  0  0  0  0  0  0  0  0  0  0  0
   -0.0713    2.1890    0.0000 R   0  0  0  0  0  1  0  0  0  0  0  0
   -2.6607    1.9762    0.0000 O   0  0  0  0  0  0  0  0  0  0  0  0
  1  2  1  0
  2  3  1  0
  2  4  1  0
  4  5  1  1
  5  6  1  0
  6  7  1  0
  7  8  1  0
  8  9  1  0
  4 10  1  0
 10 11  1  0
 10 12  2  0
M  ISO  3   1   1   3   3  11   2
M  END
>  <symbol>  (602) 
D_hNle

>  <m_abbr>  (602) 
D_hNle

>  <m_name>  (602) 
D-Homonorleucine

>  <m_type>  (602) 
aa

>  <m_subtype>  (602) 
modified

>  <m_Rgroups>  (602) 
[H],[OH],[H]

>  <m_chem_types>  (602) 
1:backbone_n,2:backbone_c,3:backbone_n_mod

>  <m_activation_policy>  (602) 
canonical-sites-v1

$$$$

     RDKit          2D

 11 10  0  0  0  0  0  0  0  0999 V2000
   -3.3018   -0.2248    0.0000 R   0  0  0  0  0  1  0  0  0  0  0  0
   -1.9832   -0.9398    0.0000 N   0  0  0  0  0  0  0  0  0  0  0  0
   -1.9430   -2.4392    0.0000 R   0  0  0  0  0  1  0  0  0  0  0  0
   -0.7047   -0.1553    0.0000 C   0  0  0  0  0  0  0  0  0  0  0  0
    0.6140   -0.8702    0.0000 C   0  0  0  0  0  0  0  0  0  0  0  0
    1.8925   -0.0858    0.0000 C   0  0  0  0  0  0  0  0  0  0  0  0
    3.2111   -0.8007    0.0000 O   0  0  0  0  0  0  0  0  0  0  0  0
    4.4896   -0.0162    0.0000 R   0  0  0  0  0  1  0  0  0  0  0  0
   -0.7448    1.3442    0.0000 C   0  0  0  0  0  0  0  0  0  0  0  0
    0.5337    2.1287    0.0000 R   0  0  0  0  0  1  0  0  0  0  0  0
   -2.0634    2.0592    0.0000 O   0  0  0  0  0  0  0  0  0  0  0  0
  1  2  1  0
  2  3  1  0
  2  4  1  0
  4  5  1  1
  5  6  1  0
  6  7  1  0
  7  8  1  0
  4  9  1  0
  9 10  1  0
  9 11  2  0
M  ISO  4   1   1   3   3   8   4  10   2
M  END
>  <symbol>  (603) 
D_hSer

>  <m_abbr>  (603) 
D_hSer

>  <m_name>  (603) 
D-Homoserine

>  <m_type>  (603) 
aa

>  <m_subtype>  (603) 
modified

>  <m_Rgroups>  (603) 
[H],[OH],[H],[H]

>  <m_chem_types>  (603) 
1:backbone_n,2:backbone_c,3:backbone_n_mod,4:hydroxyl

>  <m_activation_policy>  (603) 
canonical-sites-v1

$$$$

     RDKit          2D

 11 10  0  0  0  0  0  0  0  0999 V2000
   -3.3018   -0.2248    0.0000 R   0  0  0  0  0  1  0  0  0  0  0  0
   -1.9832   -0.9398    0.0000 N   0  0  0  0  0  0  0  0  0  0  0  0
   -1.9430   -2.4392    0.0000 R   0  0  0  0  0  1  0  0  0  0  0  0
   -0.7047   -0.1553    0.0000 C   0  0  0  0  0  0  0  0  0  0  0  0
    0.6140   -0.8702    0.0000 C   0  0  0  0  0  0  0  0  0  0  0  0
    1.8925   -0.0858    0.0000 C   0  0  0  0  0  0  0  0  0  0  0  0
    3.2111   -0.8007    0.0000 S   0  0  0  0  0  0  0  0  0  0  0  0
    4.4896   -0.0162    0.0000 R   0  0  0  0  0  1  0  0  0  0  0  0
   -0.7448    1.3442    0.0000 C   0  0  0  0  0  0  0  0  0  0  0  0
    0.5337    2.1287    0.0000 R   0  0  0  0  0  1  0  0  0  0  0  0
   -2.0634    2.0592    0.0000 O   0  0  0  0  0  0  0  0  0  0  0  0
  1  2  1  0
  2  3  1  0
  2  4  1  0
  4  5  1  1
  5  6  1  0
  6  7  1  0
  7  8  1  0
  4  9  1  0
  9 10  1  0
  9 11  2  0
M  ISO  4   1   1   3   3   8   4  10   2
M  END
>  <symbol>  (604) 
D_hCys

>  <m_abbr>  (604) 
D_hCys

>  <m_name>  (604) 
D-Homocysteine

>  <m_type>  (604) 
aa

>  <m_subtype>  (604) 
modified

>  <m_Rgroups>  (604) 
[H],[OH],[H],[H]

>  <m_chem_types>  (604) 
1:backbone_n,2:backbone_c,3:backbone_n_mod,4:thiol

>  <m_activation_policy>  (604) 
canonical-sites-v1

$$$$

     RDKit          2D

 11 10  0  0  0  0  0  0  0  0999 V2000
   -3.0813    0.0866    0.0000 R   0  0  0  0  0  1  0  0  0  0  0  0
   -1.8784   -0.8095    0.0000 N   0  0  0  0  0  0  0  0  0  0  0  0
   -2.0531   -2.2993    0.0000 R   0  0  0  0  0  1  0  0  0  0  0  0
   -0.5009   -0.2159    0.0000 C   0  0  0  0  0  0  0  0  0  0  0  0
    0.7020   -1.1120    0.0000 C   0  0  0  0  0  0  0  0  0  0  0  0
    2.0795   -0.5184    0.0000 C   0  0  0  0  0  0  0  0  0  0  0  0
    3.2824   -1.4145    0.0000 R   0  0  0  0  0  1  0  0  0  0  0  0
    2.2541    0.9714    0.0000 C   0  0  0  0  0  0  0  0  0  0  0  0
   -0.3263    1.2739    0.0000 C   0  0  0  0  0  0  0  0  0  0  0  0
    1.0513    1.8676    0.0000 R   0  0  0  0  0  1  0  0  0  0  0  0
   -1.5291    2.1701    0.0000 O   0  0  0  0  0  0  0  0  0  0  0  0
  1  2  1  0
  2  3  1  0
  2  4  1  0
  4  5  1  6
  5  6  1  0
  6  7  1  0
  6  8  2  0
  4  9  1  0
  9 10  1  0
  9 11  2  0
M  ISO  4   1   1   3   3   7   4  10   2
M  END
>  <symbol>  (605) 
AllGly

>  <m_abbr>  (605) 
AllGly

>  <m_name>  (605) 
L-Allylglycine (2-amino-4-pentenoic acid)

>  <m_type>  (605) 
aa

>  <m_subtype>  (605) 
modified

>  <m_Rgroups>  (605) 
[H],[OH],[H],[H]

>  <m_chem_types>  (605) 
1:backbone_n,2:backbone_c,3:backbone_n_mod,4:terminal_alkene

>  <m_activation_policy>  (605) 
canonical-sites-v1

$$$$

     RDKit          2D

 11 10  0  0  0  0  0  0  0  0999 V2000
   -3.0813    0.0866    0.0000 R   0  0  0  0  0  1  0  0  0  0  0  0
   -1.8784   -0.8095    0.0000 N   0  0  0  0  0  0  0  0  0  0  0  0
   -2.0531   -2.2993    0.0000 R   0  0  0  0  0  1  0  0  0  0  0  0
   -0.5009   -0.2159    0.0000 C   0  0  0  0  0  0  0  0  0  0  0  0
    0.7020   -1.1120    0.0000 C   0  0  0  0  0  0  0  0  0  0  0  0
    2.0795   -0.5184    0.0000 C   0  0  0  0  0  0  0  0  0  0  0  0
    3.2824   -1.4145    0.0000 R   0  0  0  0  0  1  0  0  0  0  0  0
    2.2541    0.9714    0.0000 C   0  0  0  0  0  0  0  0  0  0  0  0
   -0.3263    1.2739    0.0000 C   0  0  0  0  0  0  0  0  0  0  0  0
    1.0513    1.8676    0.0000 R   0  0  0  0  0  1  0  0  0  0  0  0
   -1.5291    2.1701    0.0000 O   0  0  0  0  0  0  0  0  0  0  0  0
  1  2  1  0
  2  3  1  0
  2  4  1  0
  4  5  1  1
  5  6  1  0
  6  7  1  0
  6  8  2  0
  4  9  1  0
  9 10  1  0
  9 11  2  0
M  ISO  4   1   1   3   3   7   4  10   2
M  END
>  <symbol>  (606) 
D_AllGly

>  <m_abbr>  (606) 
D_AllGly

>  <m_name>  (606) 
D-Allylglycine

>  <m_type>  (606) 
aa

>  <m_subtype>  (606) 
modified

>  <m_Rgroups>  (606) 
[H],[OH],[H],[H]

>  <m_chem_types>  (606) 
1:backbone_n,2:backbone_c,3:backbone_n_mod,4:terminal_alkene

>  <m_activation_policy>  (606) 
canonical-sites-v1

$$$$

     RDKit          2D

 10  9  0  0  0  0  0  0  0  0999 V2000
   -2.8417    0.4269    0.0000 R   0  0  0  0  0  1  0  0  0  0  0  0
   -1.7725   -0.6251    0.0000 N   0  0  0  0  0  0  0  0  0  0  0  0
   -2.1490   -2.0771    0.0000 R   0  0  0  0  0  1  0  0  0  0  0  0
   -0.3268   -0.2252    0.0000 C   0  0  0  0  0  0  0  0  0  0  0  0
    0.7424   -1.2772    0.0000 C   0  0  0  0  0  0  0  0  0  0  0  0
    2.1881   -0.8773    0.0000 C   0  0  0  0  0  0  0  0  0  0  0  0
    3.6338   -0.4773    0.0000 N   0  0  0  0  0  0  0  0  0  0  0  0
    0.0497    1.2268    0.0000 C   0  0  0  0  0  0  0  0  0  0  0  0
    1.4954    1.6267    0.0000 R   0  0  0  0  0  1  0  0  0  0  0  0
   -1.0195    2.2788    0.0000 O   0  0  0  0  0  0  0  0  0  0  0  0
  1  2  1  0
  2  3  1  0
  2  4  1  0
  4  5  1  6
  5  6  1  0
  6  7  3  0
  4  8  1  0
  8  9  1  0
  8 10  2  0
M  ISO  3   1   1   3   3   9   2
M  END
>  <symbol>  (607) 
CyanoAla

>  <m_abbr>  (607) 
CyanoAla

>  <m_name>  (607) 
L-3-Cyanoalanine (beta-cyanoalanine)

>  <m_type>  (607) 
aa

>  <m_subtype>  (607) 
modified

>  <m_Rgroups>  (607) 
[H],[OH],[H]

>  <m_chem_types>  (607) 
1:backbone_n,2:backbone_c,3:backbone_n_mod

>  <m_activation_policy>  (607) 
canonical-sites-v1

$$$$

     RDKit          2D

 14 13  0  0  0  0  0  0  0  0999 V2000
   -4.1221   -1.2303    0.0000 R   0  0  0  0  0  1  0  0  0  0  0  0
   -2.6309   -1.3930    0.0000 N   0  0  0  0  0  0  0  0  0  0  0  0
   -2.0263   -2.7658    0.0000 R   0  0  0  0  0  1  0  0  0  0  0  0
   -1.7444   -0.1830    0.0000 C   0  0  0  0  0  0  0  0  0  0  0  0
   -0.2533   -0.3457    0.0000 C   0  0  0  0  0  0  0  0  0  0  0  0
    0.6332    0.8643    0.0000 C   0  0  0  0  0  0  0  0  0  0  0  0
    2.1244    0.7016    0.0000 C   0  0  0  0  0  0  0  0  0  0  0  0
    3.0108    1.9116    0.0000 R   0  0  0  0  0  1  0  0  0  0  0  0
    2.7290   -0.6711    0.0000 N   0  0  0  0  0  0  0  0  0  0  0  0
    4.2202   -0.8339    0.0000 N   0  0  0  0  0  0  0  0  0  0  0  0
    5.7113   -0.9966    0.0000 N   0  0  0  0  0  0  0  0  0  0  0  0
   -2.3491    1.1897    0.0000 C   0  0  0  0  0  0  0  0  0  0  0  0
   -1.4626    2.3997    0.0000 R   0  0  0  0  0  1  0  0  0  0  0  0
   -3.8402    1.3524    0.0000 O   0  0  0  0  0  0  0  0  0  0  0  0
  1  2  1  0
  2  3  1  0
  2  4  1  0
  4  5  1  6
  5  6  1  0
  6  7  1  0
  7  8  1  0
  7  9  1  0
  9 10  2  0
 10 11  2  0
  4 12  1  0
 12 13  1  0
 12 14  2  0
M  CHG  2  10   1  11  -1
M  ISO  4   1   1   3   3   8   4  13   2
M  END
>  <symbol>  (608) 
AzOrn

>  <m_abbr>  (608) 
AzOrn

>  <m_name>  (608) 
L-delta-Azidoornithine

>  <m_type>  (608) 
aa

>  <m_subtype>  (608) 
modified

>  <m_Rgroups>  (608) 
[H],[OH],[H],[H]

>  <m_chem_types>  (608) 
1:backbone_n,2:backbone_c,3:backbone_n_mod,4:azide_alpha_c

>  <m_activation_policy>  (608) 
canonical-sites-v1

$$$$

     RDKit          2D

 14 13  0  0  0  0  0  0  0  0999 V2000
   -4.1221   -1.2303    0.0000 R   0  0  0  0  0  1  0  0  0  0  0  0
   -2.6309   -1.3930    0.0000 N   0  0  0  0  0  0  0  0  0  0  0  0
   -2.0263   -2.7658    0.0000 R   0  0  0  0  0  1  0  0  0  0  0  0
   -1.7444   -0.1830    0.0000 C   0  0  0  0  0  0  0  0  0  0  0  0
   -0.2533   -0.3457    0.0000 C   0  0  0  0  0  0  0  0  0  0  0  0
    0.6332    0.8643    0.0000 C   0  0  0  0  0  0  0  0  0  0  0  0
    2.1244    0.7016    0.0000 C   0  0  0  0  0  0  0  0  0  0  0  0
    3.0108    1.9116    0.0000 R   0  0  0  0  0  1  0  0  0  0  0  0
    2.7290   -0.6711    0.0000 N   0  0  0  0  0  0  0  0  0  0  0  0
    4.2202   -0.8339    0.0000 N   0  0  0  0  0  0  0  0  0  0  0  0
    5.7113   -0.9966    0.0000 N   0  0  0  0  0  0  0  0  0  0  0  0
   -2.3491    1.1897    0.0000 C   0  0  0  0  0  0  0  0  0  0  0  0
   -1.4626    2.3997    0.0000 R   0  0  0  0  0  1  0  0  0  0  0  0
   -3.8402    1.3524    0.0000 O   0  0  0  0  0  0  0  0  0  0  0  0
  1  2  1  0
  2  3  1  0
  2  4  1  0
  4  5  1  1
  5  6  1  0
  6  7  1  0
  7  8  1  0
  7  9  1  0
  9 10  2  0
 10 11  2  0
  4 12  1  0
 12 13  1  0
 12 14  2  0
M  CHG  2  10   1  11  -1
M  ISO  4   1   1   3   3   8   4  13   2
M  END
>  <symbol>  (609) 
D_AzOrn

>  <m_abbr>  (609) 
D_AzOrn

>  <m_name>  (609) 
D-delta-Azidoornithine

>  <m_type>  (609) 
aa

>  <m_subtype>  (609) 
modified

>  <m_Rgroups>  (609) 
[H],[OH],[H],[H]

>  <m_chem_types>  (609) 
1:backbone_n,2:backbone_c,3:backbone_n_mod,4:azide_alpha_c

>  <m_activation_policy>  (609) 
canonical-sites-v1

$$$$

     RDKit          2D

 15 14  0  0  0  0  0  0  0  0999 V2000
   -4.8610    0.3747    0.0000 R   0  0  0  0  0  1  0  0  0  0  0  0
   -3.7169   -0.5953    0.0000 N   0  0  0  0  0  0  0  0  0  0  0  0
   -3.9850   -2.0712    0.0000 R   0  0  0  0  0  1  0  0  0  0  0  0
   -2.3048   -0.0896    0.0000 C   0  0  0  0  0  0  0  0  0  0  0  0
   -1.1607   -1.0596    0.0000 C   0  0  0  0  0  0  0  0  0  0  0  0
    0.2515   -0.5539    0.0000 C   0  0  0  0  0  0  0  0  0  0  0  0
    1.3956   -1.5239    0.0000 C   0  0  0  0  0  0  0  0  0  0  0  0
    2.8077   -1.0181    0.0000 C   0  0  0  0  0  0  0  0  0  0  0  0
    3.9518   -1.9882    0.0000 R   0  0  0  0  0  1  0  0  0  0  0  0
    3.0758    0.4577    0.0000 N   0  0  0  0  0  0  0  0  0  0  0  0
    4.4879    0.9635    0.0000 N   0  0  0  0  0  0  0  0  0  0  0  0
    5.9001    1.4693    0.0000 N   0  0  0  0  0  0  0  0  0  0  0  0
   -2.0367    1.3863    0.0000 C   0  0  0  0  0  0  0  0  0  0  0  0
   -0.6246    1.8921    0.0000 R   0  0  0  0  0  1  0  0  0  0  0  0
   -3.1808    2.3564    0.0000 O   0  0  0  0  0  0  0  0  0  0  0  0
  1  2  1  0
  2  3  1  0
  2  4  1  0
  4  5  1  6
  5  6  1  0
  6  7  1  0
  7  8  1  0
  8  9  1  0
  8 10  1  0
 10 11  2  0
 11 12  2  0
  4 13  1  0
 13 14  1  0
 13 15  2  0
M  CHG  2  11   1  12  -1
M  ISO  4   1   1   3   3   9   4  14   2
M  END
>  <symbol>  (610) 
AzNva

>  <m_abbr>  (610) 
AzNva

>  <m_name>  (610) 
L-epsilon-Azido-norvaline (5-azido)

>  <m_type>  (610) 
aa

>  <m_subtype>  (610) 
modified

>  <m_Rgroups>  (610) 
[H],[OH],[H],[H]

>  <m_chem_types>  (610) 
1:backbone_n,2:backbone_c,3:backbone_n_mod,4:azide_alpha_c

>  <m_activation_policy>  (610) 
canonical-sites-v1

$$$$

     RDKit          2D

 15 14  0  0  0  0  0  0  0  0999 V2000
   -4.8610    0.3747    0.0000 R   0  0  0  0  0  1  0  0  0  0  0  0
   -3.7169   -0.5953    0.0000 N   0  0  0  0  0  0  0  0  0  0  0  0
   -3.9850   -2.0712    0.0000 R   0  0  0  0  0  1  0  0  0  0  0  0
   -2.3048   -0.0896    0.0000 C   0  0  0  0  0  0  0  0  0  0  0  0
   -1.1607   -1.0596    0.0000 C   0  0  0  0  0  0  0  0  0  0  0  0
    0.2515   -0.5539    0.0000 C   0  0  0  0  0  0  0  0  0  0  0  0
    1.3956   -1.5239    0.0000 C   0  0  0  0  0  0  0  0  0  0  0  0
    2.8077   -1.0181    0.0000 C   0  0  0  0  0  0  0  0  0  0  0  0
    3.9518   -1.9882    0.0000 R   0  0  0  0  0  1  0  0  0  0  0  0
    3.0758    0.4577    0.0000 N   0  0  0  0  0  0  0  0  0  0  0  0
    4.4879    0.9635    0.0000 N   0  0  0  0  0  0  0  0  0  0  0  0
    5.9001    1.4693    0.0000 N   0  0  0  0  0  0  0  0  0  0  0  0
   -2.0367    1.3863    0.0000 C   0  0  0  0  0  0  0  0  0  0  0  0
   -0.6246    1.8921    0.0000 R   0  0  0  0  0  1  0  0  0  0  0  0
   -3.1808    2.3564    0.0000 O   0  0  0  0  0  0  0  0  0  0  0  0
  1  2  1  0
  2  3  1  0
  2  4  1  0
  4  5  1  1
  5  6  1  0
  6  7  1  0
  7  8  1  0
  8  9  1  0
  8 10  1  0
 10 11  2  0
 11 12  2  0
  4 13  1  0
 13 14  1  0
 13 15  2  0
M  CHG  2  11   1  12  -1
M  ISO  4   1   1   3   3   9   4  14   2
M  END
>  <symbol>  (611) 
D_AzNva

>  <m_abbr>  (611) 
D_AzNva

>  <m_name>  (611) 
D-epsilon-Azido-norvaline

>  <m_type>  (611) 
aa

>  <m_subtype>  (611) 
modified

>  <m_Rgroups>  (611) 
[H],[OH],[H],[H]

>  <m_chem_types>  (611) 
1:backbone_n,2:backbone_c,3:backbone_n_mod,4:azide_alpha_c

>  <m_activation_policy>  (611) 
canonical-sites-v1

$$$$

     RDKit          2D

 14 13  0  0  0  0  0  0  0  0999 V2000
   -4.6155   -0.4823    0.0000 R   0  0  0  0  0  1  0  0  0  0  0  0
   -3.2318   -1.0614    0.0000 N   0  0  0  0  0  0  0  0  0  0  0  0
   -3.0416   -2.5493    0.0000 R   0  0  0  0  0  1  0  0  0  0  0  0
   -2.0384   -0.1527    0.0000 C   0  0  0  0  0  0  0  0  0  0  0  0
   -0.6548   -0.7318    0.0000 C   0  0  0  0  0  0  0  0  0  0  0  0
    0.5386    0.1769    0.0000 C   0  0  0  0  0  0  0  0  0  0  0  0
    1.9223   -0.4023    0.0000 C   0  0  0  0  0  0  0  0  0  0  0  0
    3.1157    0.5065    0.0000 C   0  0  0  0  0  0  0  0  0  0  0  0
    4.4994   -0.0727    0.0000 N   0  0  0  0  0  0  0  0  0  0  0  0
    5.6928    0.8361    0.0000 R   0  0  0  0  0  1  0  0  0  0  0  0
    4.6897   -1.5606    0.0000 C   0  0  0  0  0  0  0  0  0  0  0  0
   -2.2287    1.3352    0.0000 C   0  0  0  0  0  0  0  0  0  0  0  0
   -1.0353    2.2439    0.0000 R   0  0  0  0  0  1  0  0  0  0  0  0
   -3.6124    1.9144    0.0000 O   0  0  0  0  0  0  0  0  0  0  0  0
  1  2  1  0
  2  3  1  0
  2  4  1  0
  4  5  1  6
  5  6  1  0
  6  7  1  0
  7  8  1  0
  8  9  1  0
  9 10  1  0
  9 11  1  0
  4 12  1  0
 12 13  1  0
 12 14  2  0
M  ISO  4   1   1   3   3  10   4  13   2
M  END
>  <symbol>  (612) 
Lys_5Me

>  <m_abbr>  (612) 
Lys_5Me

>  <m_name>  (612) 
N-epsilon-methyl-L-lysine

>  <m_type>  (612) 
aa

>  <m_subtype>  (612) 
modified

>  <m_Rgroups>  (612) 
[H],[OH],[H],[H]

>  <m_chem_types>  (612) 
1:backbone_n,2:backbone_c,3:backbone_n_mod,4:amine_secondary

>  <m_activation_policy>  (612) 
canonical-sites-v1

$$$$

     RDKit          2D

 14 13  0  0  0  0  0  0  0  0999 V2000
   -4.6155   -0.4823    0.0000 R   0  0  0  0  0  1  0  0  0  0  0  0
   -3.2318   -1.0614    0.0000 N   0  0  0  0  0  0  0  0  0  0  0  0
   -3.0416   -2.5493    0.0000 R   0  0  0  0  0  1  0  0  0  0  0  0
   -2.0384   -0.1527    0.0000 C   0  0  0  0  0  0  0  0  0  0  0  0
   -0.6548   -0.7318    0.0000 C   0  0  0  0  0  0  0  0  0  0  0  0
    0.5386    0.1769    0.0000 C   0  0  0  0  0  0  0  0  0  0  0  0
    1.9223   -0.4023    0.0000 C   0  0  0  0  0  0  0  0  0  0  0  0
    3.1157    0.5065    0.0000 C   0  0  0  0  0  0  0  0  0  0  0  0
    4.4994   -0.0727    0.0000 N   0  0  0  0  0  0  0  0  0  0  0  0
    5.6928    0.8361    0.0000 C   0  0  0  0  0  0  0  0  0  0  0  0
    4.6897   -1.5606    0.0000 C   0  0  0  0  0  0  0  0  0  0  0  0
   -2.2287    1.3352    0.0000 C   0  0  0  0  0  0  0  0  0  0  0  0
   -1.0353    2.2439    0.0000 R   0  0  0  0  0  1  0  0  0  0  0  0
   -3.6124    1.9144    0.0000 O   0  0  0  0  0  0  0  0  0  0  0  0
  1  2  1  0
  2  3  1  0
  2  4  1  0
  4  5  1  6
  5  6  1  0
  6  7  1  0
  7  8  1  0
  8  9  1  0
  9 10  1  0
  9 11  1  0
  4 12  1  0
 12 13  1  0
 12 14  2  0
M  ISO  3   1   1   3   3  13   2
M  END
>  <symbol>  (613) 
Lys_5diMe

>  <m_abbr>  (613) 
Lys_5diMe

>  <m_name>  (613) 
N-epsilon,epsilon-dimethyl-L-lysine

>  <m_type>  (613) 
aa

>  <m_subtype>  (613) 
modified

>  <m_Rgroups>  (613) 
[H],[OH],[H]

>  <m_chem_types>  (613) 
1:backbone_n,2:backbone_c,3:backbone_n_mod

>  <m_activation_policy>  (613) 
canonical-sites-v1

$$$$

     RDKit          2D

 22 22  0  0  0  0  0  0  0  0999 V2000
    5.7714    2.6980    0.0000 R   0  0  0  0  0  1  0  0  0  0  0  0
    4.6523    1.6992    0.0000 N   0  0  0  0  0  0  0  0  0  0  0  0
    3.2278    2.1688    0.0000 R   0  0  0  0  0  1  0  0  0  0  0  0
    4.9579    0.2306    0.0000 C   0  0  0  0  0  0  0  0  0  0  0  0
    3.8388   -0.7683    0.0000 C   0  0  0  0  0  0  0  0  0  0  0  0
    2.4143   -0.2986    0.0000 C   0  0  0  0  0  0  0  0  0  0  0  0
    1.2952   -1.2975    0.0000 C   0  0  0  0  0  0  0  0  0  0  0  0
   -0.1293   -0.8278    0.0000 C   0  0  0  0  0  0  0  0  0  0  0  0
   -1.2484   -1.8267    0.0000 N   0  0  0  0  0  0  0  0  0  0  0  0
   -0.9428   -3.2952    0.0000 R   0  0  0  0  0  1  0  0  0  0  0  0
   -2.6729   -1.3570    0.0000 C   0  0  0  0  0  0  0  0  0  0  0  0
   -3.7920   -2.3559    0.0000 O   0  0  0  0  0  0  0  0  0  0  0  0
   -2.9785    0.1116    0.0000 O   0  0  0  0  0  0  0  0  0  0  0  0
   -4.4031    0.5812    0.0000 C   0  0  0  0  0  0  0  0  0  0  0  0
   -5.5221   -0.4176    0.0000 C   0  0  0  0  0  0  0  0  0  0  0  0
   -6.9467    0.0520    0.0000 C   0  0  0  0  0  0  0  0  0  0  0  0
   -7.2522    1.5206    0.0000 C   0  0  0  0  0  0  0  0  0  0  0  0
   -6.1332    2.5195    0.0000 C   0  0  0  0  0  0  0  0  0  0  0  0
   -4.7086    2.0498    0.0000 C   0  0  0  0  0  0  0  0  0  0  0  0
    6.3825   -0.2391    0.0000 C   0  0  0  0  0  0  0  0  0  0  0  0
    7.5015    0.7598    0.0000 R   0  0  0  0  0  1  0  0  0  0  0  0
    6.6880   -1.7076    0.0000 O   0  0  0  0  0  0  0  0  0  0  0  0
  1  2  1  0
  2  3  1  0
  2  4  1  0
  4  5  1  6
  5  6  1  0
  6  7  1  0
  7  8  1  0
  8  9  1  0
  9 10  1  0
  9 11  1  0
 11 12  2  0
 11 13  1  0
 13 14  1  0
 14 15  2  0
 15 16  1  0
 16 17  2  0
 17 18  1  0
 18 19  2  0
  4 20  1  0
 20 21  1  0
 20 22  2  0
 19 14  1  0
M  ISO  4   1   1   3   3  10   4  21   2
M  END
>  <symbol>  (614) 
Lys_Cbz

>  <m_abbr>  (614) 
Lys_Cbz

>  <m_name>  (614) 
N-epsilon-Cbz-L-lysine

>  <m_type>  (614) 
aa

>  <m_subtype>  (614) 
modified

>  <m_Rgroups>  (614) 
[H],[OH],[H],[H]

>  <m_chem_types>  (614) 
1:backbone_n,2:backbone_c,3:backbone_n_mod,4:carbamate_nh

>  <m_activation_policy>  (614) 
canonical-sites-v1

$$$$

     RDKit          2D

 21 21  0  0  0  0  0  0  0  0999 V2000
    6.3266   -1.1471    0.0000 R   0  0  0  0  0  1  0  0  0  0  0  0
    4.8458   -0.9080    0.0000 N   0  0  0  0  0  0  0  0  0  0  0  0
    3.8983   -2.0708    0.0000 R   0  0  0  0  0  1  0  0  0  0  0  0
    4.3125    0.4940    0.0000 C   0  0  0  0  0  0  0  0  0  0  0  0
    2.8317    0.7332    0.0000 C   0  0  0  0  0  0  0  0  0  0  0  0
    1.8842   -0.4296    0.0000 C   0  0  0  0  0  0  0  0  0  0  0  0
    0.4034   -0.1905    0.0000 C   0  0  0  0  0  0  0  0  0  0  0  0
   -0.5442   -1.3533    0.0000 N   0  0  0  0  0  0  0  0  0  0  0  0
   -0.0109   -2.7553    0.0000 R   0  0  0  0  0  1  0  0  0  0  0  0
   -2.0250   -1.1141    0.0000 C   0  0  0  0  0  0  0  0  0  0  0  0
   -2.9725   -2.2770    0.0000 O   0  0  0  0  0  0  0  0  0  0  0  0
   -2.5583    0.2879    0.0000 O   0  0  0  0  0  0  0  0  0  0  0  0
   -4.0391    0.5270    0.0000 C   0  0  0  0  0  0  0  0  0  0  0  0
   -4.9866   -0.6358    0.0000 C   0  0  0  0  0  0  0  0  0  0  0  0
   -6.4674   -0.3966    0.0000 C   0  0  0  0  0  0  0  0  0  0  0  0
   -7.0007    1.0054    0.0000 C   0  0  0  0  0  0  0  0  0  0  0  0
   -6.0532    2.1682    0.0000 C   0  0  0  0  0  0  0  0  0  0  0  0
   -4.5724    1.9290    0.0000 C   0  0  0  0  0  0  0  0  0  0  0  0
    5.2600    1.6569    0.0000 C   0  0  0  0  0  0  0  0  0  0  0  0
    6.7409    1.4177    0.0000 R   0  0  0  0  0  1  0  0  0  0  0  0
    4.7268    3.0589    0.0000 O   0  0  0  0  0  0  0  0  0  0  0  0
  1  2  1  0
  2  3  1  0
  2  4  1  0
  4  5  1  1
  5  6  1  0
  6  7  1  0
  7  8  1  0
  8  9  1  0
  8 10  1  0
 10 11  2  0
 10 12  1  0
 12 13  1  0
 13 14  2  0
 14 15  1  0
 15 16  2  0
 16 17  1  0
 17 18  2  0
  4 19  1  0
 19 20  1  0
 19 21  2  0
 18 13  1  0
M  ISO  4   1   1   3   3   9   4  20   2
M  END
>  <symbol>  (615) 
Orn_Cbz

>  <m_abbr>  (615) 
Orn_Cbz

>  <m_name>  (615) 
N-delta-Cbz-L-ornithine

>  <m_type>  (615) 
aa

>  <m_subtype>  (615) 
modified

>  <m_Rgroups>  (615) 
[H],[OH],[H],[H]

>  <m_chem_types>  (615) 
1:backbone_n,2:backbone_c,3:backbone_n_mod,4:carbamate_nh

>  <m_activation_policy>  (615) 
canonical-sites-v1

$$$$

     RDKit          2D

 12 11  0  0  0  0  0  0  0  0999 V2000
   -1.5970    2.2233    0.0000 R   0  0  0  0  0  1  0  0  0  0  0  0
   -1.8542    0.7455    0.0000 N   0  0  0  0  0  0  0  0  0  0  0  0
   -3.2625    0.2293    0.0000 R   0  0  0  0  0  1  0  0  0  0  0  0
   -0.7029   -0.2161    0.0000 C   0  0  0  0  0  0  0  0  0  0  0  0
   -1.6645   -1.3673    0.0000 C   0  0  0  0  0  0  0  0  0  0  0  0
    0.2587    0.9352    0.0000 C   0  0  0  0  0  0  0  0  0  0  0  0
    1.7365    0.6781    0.0000 C   0  0  0  0  0  0  0  0  0  0  0  0
    2.2351   -0.2951    0.0000 R   0  0  0  0  0  1  0  0  0  0  0  0
    2.6980    1.8293    0.0000 C   0  0  0  0  0  0  0  0  0  0  0  0
    0.4483   -1.1776    0.0000 C   0  0  0  0  0  0  0  0  0  0  0  0
    0.1912   -2.6554    0.0000 R   0  0  0  0  0  1  0  0  0  0  0  0
    1.5133   -0.9293    0.0000 O   0  0  0  0  0  0  0  0  0  0  0  0
  1  2  1  0
  2  3  1  0
  2  4  1  0
  4  5  1  6
  4  6  1  0
  6  7  1  0
  7  8  1  0
  7  9  2  0
  4 10  1  0
 10 11  1  0
 10 12  2  0
M  ISO  4   1   1   3   3   8   4  11   2
M  END
>  <symbol>  (616) 
S3

>  <m_abbr>  (616) 
S3

>  <m_name>  (616) 
(S)-alpha-Me-allylglycine (i,i+3 RCM)

>  <m_type>  (616) 
aa

>  <m_subtype>  (616) 
modified

>  <m_Rgroups>  (616) 
[H],[OH],[H],[H]

>  <m_chem_types>  (616) 
1:backbone_n,2:backbone_c,3:backbone_n_mod,4:terminal_alkene

>  <m_activation_policy>  (616) 
canonical-sites-v1

$$$$

     RDKit          2D

 12 11  0  0  0  0  0  0  0  0999 V2000
   -1.5970    2.2233    0.0000 R   0  0  0  0  0  1  0  0  0  0  0  0
   -1.8542    0.7455    0.0000 N   0  0  0  0  0  0  0  0  0  0  0  0
   -3.2625    0.2293    0.0000 R   0  0  0  0  0  1  0  0  0  0  0  0
   -0.7029   -0.2161    0.0000 C   0  0  0  0  0  0  0  0  0  0  0  0
   -1.6645   -1.3673    0.0000 C   0  0  0  0  0  0  0  0  0  0  0  0
    0.2587    0.9352    0.0000 C   0  0  0  0  0  0  0  0  0  0  0  0
    1.7365    0.6781    0.0000 C   0  0  0  0  0  0  0  0  0  0  0  0
    2.2351   -0.2951    0.0000 R   0  0  0  0  0  1  0  0  0  0  0  0
    2.6980    1.8293    0.0000 C   0  0  0  0  0  0  0  0  0  0  0  0
    0.4483   -1.1776    0.0000 C   0  0  0  0  0  0  0  0  0  0  0  0
    0.1912   -2.6554    0.0000 R   0  0  0  0  0  1  0  0  0  0  0  0
    1.5133   -0.9293    0.0000 O   0  0  0  0  0  0  0  0  0  0  0  0
  1  2  1  0
  2  3  1  0
  2  4  1  0
  4  5  1  1
  4  6  1  0
  6  7  1  0
  7  8  1  0
  7  9  2  0
  4 10  1  0
 10 11  1  0
 10 12  2  0
M  ISO  4   1   1   3   3   8   4  11   2
M  END
>  <symbol>  (617) 
R3

>  <m_abbr>  (617) 
R3

>  <m_name>  (617) 
(R)-alpha-Me-allylglycine (i,i+3 RCM)

>  <m_type>  (617) 
aa

>  <m_subtype>  (617) 
modified

>  <m_Rgroups>  (617) 
[H],[OH],[H],[H]

>  <m_chem_types>  (617) 
1:backbone_n,2:backbone_c,3:backbone_n_mod,4:terminal_alkene

>  <m_activation_policy>  (617) 
canonical-sites-v1

$$$$

     RDKit          2D

 14 13  0  0  0  0  0  0  0  0999 V2000
   -1.8823    2.4488    0.0000 R   0  0  0  0  0  1  0  0  0  0  0  0
   -2.5206    1.0914    0.0000 N   0  0  0  0  0  0  0  0  0  0  0  0
   -4.0153    0.9656    0.0000 R   0  0  0  0  0  1  0  0  0  0  0  0
   -1.6643   -0.1401    0.0000 C   0  0  0  0  0  0  0  0  0  0  0  0
   -2.8958   -0.9964    0.0000 C   0  0  0  0  0  0  0  0  0  0  0  0
   -0.4328    0.7162    0.0000 C   0  0  0  0  0  0  0  0  0  0  0  0
    0.9246    0.0778    0.0000 C   0  0  0  0  0  0  0  0  0  0  0  0
    2.1562    0.9342    0.0000 C   0  0  0  0  0  0  0  0  0  0  0  0
    3.5135    0.2958    0.0000 C   0  0  0  0  0  0  0  0  0  0  0  0
    4.7451    1.1521    0.0000 R   0  0  0  0  0  1  0  0  0  0  0  0
    3.6394   -1.1989    0.0000 C   0  0  0  0  0  0  0  0  0  0  0  0
   -0.8080   -1.3717    0.0000 C   0  0  0  0  0  0  0  0  0  0  0  0
    0.6867   -1.2458    0.0000 R   0  0  0  0  0  1  0  0  0  0  0  0
   -1.4464   -2.7290    0.0000 O   0  0  0  0  0  0  0  0  0  0  0  0
  1  2  1  0
  2  3  1  0
  2  4  1  0
  4  5  1  1
  4  6  1  0
  6  7  1  0
  7  8  1  0
  8  9  1  0
  9 10  1  0
  9 11  2  0
  4 12  1  0
 12 13  1  0
 12 14  2  0
M  ISO  4   1   1   3   3  10   4  13   2
M  END
>  <symbol>  (618) 
R5

>  <m_abbr>  (618) 
R5

>  <m_name>  (618) 
(R)-alpha-Me-pentenylglycine (i,i+4 RCM, S5 mirror)

>  <m_type>  (618) 
aa

>  <m_subtype>  (618) 
modified

>  <m_Rgroups>  (618) 
[H],[OH],[H],[H]

>  <m_chem_types>  (618) 
1:backbone_n,2:backbone_c,3:backbone_n_mod,4:terminal_alkene

>  <m_activation_policy>  (618) 
canonical-sites-v1

$$$$

     RDKit          2D

 17 16  0  0  0  0  0  0  0  0999 V2000
   -3.0590    2.5273    0.0000 R   0  0  0  0  0  1  0  0  0  0  0  0
   -3.8879    1.2771    0.0000 N   0  0  0  0  0  0  0  0  0  0  0  0
   -5.3850    1.3698    0.0000 R   0  0  0  0  0  1  0  0  0  0  0  0
   -3.2196   -0.0658    0.0000 C   0  0  0  0  0  0  0  0  0  0  0  0
   -4.5625   -0.7341    0.0000 C   0  0  0  0  0  0  0  0  0  0  0  0
   -1.8767    0.6024    0.0000 C   0  0  0  0  0  0  0  0  0  0  0  0
   -0.6265   -0.2264    0.0000 C   0  0  0  0  0  0  0  0  0  0  0  0
    0.7164    0.4419    0.0000 C   0  0  0  0  0  0  0  0  0  0  0  0
    1.9666   -0.3870    0.0000 C   0  0  0  0  0  0  0  0  0  0  0  0
    3.3095    0.2813    0.0000 C   0  0  0  0  0  0  0  0  0  0  0  0
    4.5597   -0.5476    0.0000 C   0  0  0  0  0  0  0  0  0  0  0  0
    5.9026    0.1207    0.0000 C   0  0  0  0  0  0  0  0  0  0  0  0
    7.1528   -0.7082    0.0000 R   0  0  0  0  0  1  0  0  0  0  0  0
    5.9953    1.6178    0.0000 C   0  0  0  0  0  0  0  0  0  0  0  0
   -2.5513   -1.4087    0.0000 C   0  0  0  0  0  0  0  0  0  0  0  0
   -1.0542   -1.5015    0.0000 R   0  0  0  0  0  1  0  0  0  0  0  0
   -3.3802   -2.6589    0.0000 O   0  0  0  0  0  0  0  0  0  0  0  0
  1  2  1  0
  2  3  1  0
  2  4  1  0
  4  5  1  6
  4  6  1  0
  6  7  1  0
  7  8  1  0
  8  9  1  0
  9 10  1  0
 10 11  1  0
 11 12  1  0
 12 13  1  0
 12 14  2  0
  4 15  1  0
 15 16  1  0
 15 17  2  0
M  ISO  4   1   1   3   3  13   4  16   2
M  END
>  <symbol>  (619) 
S8

>  <m_abbr>  (619) 
S8

>  <m_name>  (619) 
(S)-alpha-Me-octenylglycine (i,i+7 RCM, R8 mirror)

>  <m_type>  (619) 
aa

>  <m_subtype>  (619) 
modified

>  <m_Rgroups>  (619) 
[H],[OH],[H],[H]

>  <m_chem_types>  (619) 
1:backbone_n,2:backbone_c,3:backbone_n_mod,4:terminal_alkene

>  <m_activation_policy>  (619) 
canonical-sites-v1

$$$$

     RDKit          2D

 14 14  0  0  0  0  0  0  0  0999 V2000
   -2.3413    2.2101    0.0000 R   0  0  0  0  0  1  0  0  0  0  0  0
   -1.1930    1.2450    0.0000 N   0  0  0  0  0  0  0  0  0  0  0  0
    0.2170    1.7569    0.0000 C   0  0  0  0  0  0  0  0  0  0  0  0
   -1.4546   -0.2320    0.0000 C   0  0  0  0  0  0  0  0  0  0  0  0
   -0.3063   -1.1971    0.0000 C   0  0  0  0  0  0  0  0  0  0  0  0
    1.1037   -0.6851    0.0000 C   0  0  0  0  0  0  0  0  0  0  0  0
    1.3653    0.7919    0.0000 C   0  0  0  0  0  0  0  0  0  0  0  0
    2.7752    1.3038    0.0000 C   0  0  0  0  0  0  0  0  0  0  0  0
    3.9235    0.3387    0.0000 C   0  0  0  0  0  0  0  0  0  0  0  0
    3.6619   -1.1383    0.0000 C   0  0  0  0  0  0  0  0  0  0  0  0
    2.2520   -1.6502    0.0000 C   0  0  0  0  0  0  0  0  0  0  0  0
   -2.8645   -0.7439    0.0000 C   0  0  0  0  0  0  0  0  0  0  0  0
   -4.0128    0.2211    0.0000 R   0  0  0  0  0  1  0  0  0  0  0  0
   -3.1261   -2.2209    0.0000 O   0  0  0  0  0  0  0  0  0  0  0  0
  1  2  1  0
  2  3  1  0
  2  4  1  0
  4  5  1  1
  5  6  1  0
  6  7  1  0
  7  8  1  0
  8  9  1  0
  9 10  1  0
 10 11  1  0
  4 12  1  0
 12 13  1  0
 12 14  2  0
 11  6  1  0
M  ISO  2   1   1  13   2
M  END
>  <symbol>  (620) 
meCha

>  <m_abbr>  (620) 
meCha

>  <m_name>  (620) 
NMe-L-cyclohexylalanine

>  <m_type>  (620) 
aa

>  <m_subtype>  (620) 
modified

>  <m_Rgroups>  (620) 
[H],[OH]

>  <m_chem_types>  (620) 
1:backbone_n,2:backbone_c

>  <m_activation_policy>  (620) 
canonical-sites-v1

$$$$

     RDKit          2D

 11 10  0  0  0  0  0  0  0  0999 V2000
   -3.3018   -0.2248    0.0000 R   0  0  0  0  0  1  0  0  0  0  0  0
   -1.9832   -0.9398    0.0000 N   0  0  0  0  0  0  0  0  0  0  0  0
   -1.9430   -2.4392    0.0000 C   0  0  0  0  0  0  0  0  0  0  0  0
   -0.7047   -0.1553    0.0000 C   0  0  0  0  0  0  0  0  0  0  0  0
    0.6140   -0.8702    0.0000 C   0  0  0  0  0  0  0  0  0  0  0  0
    1.8925   -0.0858    0.0000 C   0  0  0  0  0  0  0  0  0  0  0  0
    3.2111   -0.8007    0.0000 C   0  0  0  0  0  0  0  0  0  0  0  0
    4.4896   -0.0162    0.0000 C   0  0  0  0  0  0  0  0  0  0  0  0
   -0.7448    1.3442    0.0000 C   0  0  0  0  0  0  0  0  0  0  0  0
    0.5337    2.1287    0.0000 R   0  0  0  0  0  1  0  0  0  0  0  0
   -2.0634    2.0592    0.0000 O   0  0  0  0  0  0  0  0  0  0  0  0
  1  2  1  0
  2  3  1  0
  2  4  1  0
  4  5  1  6
  5  6  1  0
  6  7  1  0
  7  8  1  0
  4  9  1  0
  9 10  1  0
  9 11  2  0
M  ISO  2   1   1  10   2
M  END
>  <symbol>  (621) 
meNle

>  <m_abbr>  (621) 
meNle

>  <m_name>  (621) 
NMe-L-norleucine

>  <m_type>  (621) 
aa

>  <m_subtype>  (621) 
modified

>  <m_Rgroups>  (621) 
[H],[OH]

>  <m_chem_types>  (621) 
1:backbone_n,2:backbone_c

>  <m_activation_policy>  (621) 
canonical-sites-v1

$$$$

     RDKit          2D

 10  9  0  0  0  0  0  0  0  0999 V2000
   -2.8539   -0.2134    0.0000 R   0  0  0  0  0  1  0  0  0  0  0  0
   -1.5385   -0.9344    0.0000 N   0  0  0  0  0  0  0  0  0  0  0  0
   -1.5052   -2.4340    0.0000 C   0  0  0  0  0  0  0  0  0  0  0  0
   -0.2564   -0.1557    0.0000 C   0  0  0  0  0  0  0  0  0  0  0  0
    1.0589   -0.8767    0.0000 C   0  0  0  0  0  0  0  0  0  0  0  0
    2.3410   -0.0981    0.0000 C   0  0  0  0  0  0  0  0  0  0  0  0
    3.6564   -0.8191    0.0000 C   0  0  0  0  0  0  0  0  0  0  0  0
   -0.2897    1.3439    0.0000 C   0  0  0  0  0  0  0  0  0  0  0  0
    0.9924    2.1225    0.0000 R   0  0  0  0  0  1  0  0  0  0  0  0
   -1.6051    2.0649    0.0000 O   0  0  0  0  0  0  0  0  0  0  0  0
  1  2  1  0
  2  3  1  0
  2  4  1  0
  4  5  1  6
  5  6  1  0
  6  7  1  0
  4  8  1  0
  8  9  1  0
  8 10  2  0
M  ISO  2   1   1   9   2
M  END
>  <symbol>  (622) 
meNva

>  <m_abbr>  (622) 
meNva

>  <m_name>  (622) 
NMe-L-norvaline

>  <m_type>  (622) 
aa

>  <m_subtype>  (622) 
modified

>  <m_Rgroups>  (622) 
[H],[OH]

>  <m_chem_types>  (622) 
1:backbone_n,2:backbone_c

>  <m_activation_policy>  (622) 
canonical-sites-v1

$$$$

     RDKit          2D

  9  8  0  0  0  0  0  0  0  0999 V2000
   -2.2500    1.0104    0.0000 R   0  0  0  0  0  1  0  0  0  0  0  0
   -1.5000   -0.2887    0.0000 N   0  0  0  0  0  0  0  0  0  0  0  0
   -2.2500   -1.5877    0.0000 C   0  0  0  0  0  0  0  0  0  0  0  0
   -0.0000   -0.2887    0.0000 C   0  0  0  0  0  0  0  0  0  0  0  0
    0.7500   -1.5877    0.0000 C   0  0  0  0  0  0  0  0  0  0  0  0
    2.2500   -1.5877    0.0000 C   0  0  0  0  0  0  0  0  0  0  0  0
    0.7500    1.0104    0.0000 C   0  0  0  0  0  0  0  0  0  0  0  0
    2.2500    1.0104    0.0000 R   0  0  0  0  0  1  0  0  0  0  0  0
   -0.0000    2.3094    0.0000 O   0  0  0  0  0  0  0  0  0  0  0  0
  1  2  1  0
  2  3  1  0
  2  4  1  0
  4  5  1  6
  5  6  1  0
  4  7  1  0
  7  8  1  0
  7  9  2  0
M  ISO  2   1   1   8   2
M  END
>  <symbol>  (623) 
meAbu

>  <m_abbr>  (623) 
meAbu

>  <m_name>  (623) 
NMe-L-Abu (NMe-alpha-aminobutyric)

>  <m_type>  (623) 
aa

>  <m_subtype>  (623) 
modified

>  <m_Rgroups>  (623) 
[H],[OH]

>  <m_chem_types>  (623) 
1:backbone_n,2:backbone_c

>  <m_activation_policy>  (623) 
canonical-sites-v1

$$$$

     RDKit          2D

 18 19  0  0  0  0  0  0  0  0999 V2000
   -3.9967   -1.5786    0.0000 R   0  0  0  0  0  1  0  0  0  0  0  0
   -2.5756   -1.0986    0.0000 N   0  0  0  0  0  0  0  0  0  0  0  0
   -1.4493   -2.0892    0.0000 C   0  0  0  0  0  0  0  0  0  0  0  0
   -2.2807    0.3722    0.0000 C   0  0  0  0  0  0  0  0  0  0  0  0
   -0.8596    0.8522    0.0000 C   0  0  0  0  0  0  0  0  0  0  0  0
    0.2667   -0.1384    0.0000 C   0  0  0  0  0  0  0  0  0  0  0  0
   -0.0281   -1.6092    0.0000 C   0  0  0  0  0  0  0  0  0  0  0  0
    1.0981   -2.5999    0.0000 C   0  0  0  0  0  0  0  0  0  0  0  0
    2.5193   -2.1198    0.0000 C   0  0  0  0  0  0  0  0  0  0  0  0
    2.8141   -0.6491    0.0000 C   0  0  0  0  0  0  0  0  0  0  0  0
    4.2352   -0.1690    0.0000 C   0  0  0  0  0  0  0  0  0  0  0  0
    4.5300    1.3017    0.0000 C   0  0  0  0  0  0  0  0  0  0  0  0
    3.4037    2.2924    0.0000 C   0  0  0  0  0  0  0  0  0  0  0  0
    1.9826    1.8124    0.0000 C   0  0  0  0  0  0  0  0  0  0  0  0
    1.6878    0.3416    0.0000 C   0  0  0  0  0  0  0  0  0  0  0  0
   -3.4070    1.3629    0.0000 C   0  0  0  0  0  0  0  0  0  0  0  0
   -4.8281    0.8828    0.0000 R   0  0  0  0  0  1  0  0  0  0  0  0
   -3.1122    2.8336    0.0000 O   0  0  0  0  0  0  0  0  0  0  0  0
  1  2  1  0
  2  3  1  0
  2  4  1  0
  4  5  1  6
  5  6  1  0
  6  7  2  0
  7  8  1  0
  8  9  2  0
  9 10  1  0
 10 11  2  0
 11 12  1  0
 12 13  2  0
 13 14  1  0
 14 15  2  0
  4 16  1  0
 16 17  1  0
 16 18  2  0
 15  6  1  0
 15 10  1  0
M  ISO  2   1   1  17   2
M  END
>  <symbol>  (624) 
me1Nal

>  <m_abbr>  (624) 
me1Nal

>  <m_name>  (624) 
NMe-L-1-naphthylalanine

>  <m_type>  (624) 
aa

>  <m_subtype>  (624) 
modified

>  <m_Rgroups>  (624) 
[H],[OH]

>  <m_chem_types>  (624) 
1:backbone_n,2:backbone_c

>  <m_activation_policy>  (624) 
canonical-sites-v1

$$$$

     RDKit          2D

 18 19  0  0  0  0  0  0  0  0999 V2000
   -2.8410    2.4745    0.0000 R   0  0  0  0  0  1  0  0  0  0  0  0
   -1.9666    1.2557    0.0000 N   0  0  0  0  0  0  0  0  0  0  0  0
   -0.4739    1.4035    0.0000 C   0  0  0  0  0  0  0  0  0  0  0  0
   -2.5850   -0.1109    0.0000 C   0  0  0  0  0  0  0  0  0  0  0  0
   -1.7106   -1.3297    0.0000 C   0  0  0  0  0  0  0  0  0  0  0  0
   -0.2179   -1.1819    0.0000 C   0  0  0  0  0  0  0  0  0  0  0  0
    0.6564   -2.4007    0.0000 C   0  0  0  0  0  0  0  0  0  0  0  0
    2.1491   -2.2530    0.0000 C   0  0  0  0  0  0  0  0  0  0  0  0
    2.7675   -0.8863    0.0000 C   0  0  0  0  0  0  0  0  0  0  0  0
    4.2602   -0.7385    0.0000 C   0  0  0  0  0  0  0  0  0  0  0  0
    4.8785    0.6281    0.0000 C   0  0  0  0  0  0  0  0  0  0  0  0
    4.0042    1.8469    0.0000 C   0  0  0  0  0  0  0  0  0  0  0  0
    2.5115    1.6991    0.0000 C   0  0  0  0  0  0  0  0  0  0  0  0
    1.8931    0.3325    0.0000 C   0  0  0  0  0  0  0  0  0  0  0  0
    0.4004    0.1847    0.0000 C   0  0  0  0  0  0  0  0  0  0  0  0
   -4.0777   -0.2587    0.0000 C   0  0  0  0  0  0  0  0  0  0  0  0
   -4.9520    0.9601    0.0000 R   0  0  0  0  0  1  0  0  0  0  0  0
   -4.6960   -1.6253    0.0000 O   0  0  0  0  0  0  0  0  0  0  0  0
  1  2  1  0
  2  3  1  0
  2  4  1  0
  4  5  1  1
  5  6  1  0
  6  7  1  0
  7  8  2  0
  8  9  1  0
  9 10  2  0
 10 11  1  0
 11 12  2  0
 12 13  1  0
 13 14  2  0
 14 15  1  0
  4 16  1  0
 16 17  1  0
 16 18  2  0
 15  6  2  0
 14  9  1  0
M  ISO  2   1   1  17   2
M  END
>  <symbol>  (625) 
me2Nal

>  <m_abbr>  (625) 
me2Nal

>  <m_name>  (625) 
NMe-L-2-naphthylalanine

>  <m_type>  (625) 
aa

>  <m_subtype>  (625) 
modified

>  <m_Rgroups>  (625) 
[H],[OH]

>  <m_chem_types>  (625) 
1:backbone_n,2:backbone_c

>  <m_activation_policy>  (625) 
canonical-sites-v1

$$$$

     RDKit          2D

 15 15  0  0  0  0  0  0  0  0999 V2000
   -2.5933    2.2771    0.0000 R   0  0  0  0  0  1  0  0  0  0  0  0
   -1.4913    1.2594    0.0000 N   0  0  0  0  0  0  0  0  0  0  0  0
   -0.0590    1.7049    0.0000 C   0  0  0  0  0  0  0  0  0  0  0  0
   -1.8217   -0.2038    0.0000 C   0  0  0  0  0  0  0  0  0  0  0  0
   -0.7197   -1.2215    0.0000 C   0  0  0  0  0  0  0  0  0  0  0  0
    0.7126   -0.7760    0.0000 C   0  0  0  0  0  0  0  0  0  0  0  0
    1.0430    0.6872    0.0000 C   0  0  0  0  0  0  0  0  0  0  0  0
    2.4753    1.1326    0.0000 C   0  0  0  0  0  0  0  0  0  0  0  0
    3.5773    0.1149    0.0000 C   0  0  0  0  0  0  0  0  0  0  0  0
    5.0096    0.5604    0.0000 F   0  0  0  0  0  0  0  0  0  0  0  0
    3.2469   -1.3482    0.0000 C   0  0  0  0  0  0  0  0  0  0  0  0
    1.8146   -1.7937    0.0000 C   0  0  0  0  0  0  0  0  0  0  0  0
   -3.2540   -0.6493    0.0000 C   0  0  0  0  0  0  0  0  0  0  0  0
   -4.3559    0.3684    0.0000 R   0  0  0  0  0  1  0  0  0  0  0  0
   -3.5844   -2.1124    0.0000 O   0  0  0  0  0  0  0  0  0  0  0  0
  1  2  1  0
  2  3  1  0
  2  4  1  0
  4  5  1  1
  5  6  1  0
  6  7  1  0
  7  8  2  0
  8  9  1  0
  9 10  1  0
  9 11  2  0
 11 12  1  0
  4 13  1  0
 13 14  1  0
 13 15  2  0
 12  6  2  0
M  ISO  2   1   1  14   2
M  END
>  <symbol>  (626) 
mePhe_4F

>  <m_abbr>  (626) 
mePhe_4F

>  <m_name>  (626) 
NMe-L-4-fluorophenylalanine

>  <m_type>  (626) 
aa

>  <m_subtype>  (626) 
modified

>  <m_Rgroups>  (626) 
[H],[OH]

>  <m_chem_types>  (626) 
1:backbone_n,2:backbone_c

>  <m_activation_policy>  (626) 
canonical-sites-v1

$$$$

     RDKit          2D

 15 15  0  0  0  0  0  0  0  0999 V2000
   -2.5933    2.2771    0.0000 R   0  0  0  0  0  1  0  0  0  0  0  0
   -1.4913    1.2594    0.0000 N   0  0  0  0  0  0  0  0  0  0  0  0
   -0.0590    1.7049    0.0000 C   0  0  0  0  0  0  0  0  0  0  0  0
   -1.8217   -0.2038    0.0000 C   0  0  0  0  0  0  0  0  0  0  0  0
   -0.7197   -1.2215    0.0000 C   0  0  0  0  0  0  0  0  0  0  0  0
    0.7126   -0.7760    0.0000 C   0  0  0  0  0  0  0  0  0  0  0  0
    1.0430    0.6872    0.0000 C   0  0  0  0  0  0  0  0  0  0  0  0
    2.4753    1.1326    0.0000 C   0  0  0  0  0  0  0  0  0  0  0  0
    3.5773    0.1149    0.0000 C   0  0  0  0  0  0  0  0  0  0  0  0
    5.0096    0.5604    0.0000 Cl  0  0  0  0  0  0  0  0  0  0  0  0
    3.2469   -1.3482    0.0000 C   0  0  0  0  0  0  0  0  0  0  0  0
    1.8146   -1.7937    0.0000 C   0  0  0  0  0  0  0  0  0  0  0  0
   -3.2540   -0.6493    0.0000 C   0  0  0  0  0  0  0  0  0  0  0  0
   -4.3559    0.3684    0.0000 R   0  0  0  0  0  1  0  0  0  0  0  0
   -3.5844   -2.1124    0.0000 O   0  0  0  0  0  0  0  0  0  0  0  0
  1  2  1  0
  2  3  1  0
  2  4  1  0
  4  5  1  1
  5  6  1  0
  6  7  1  0
  7  8  2  0
  8  9  1  0
  9 10  1  0
  9 11  2  0
 11 12  1  0
  4 13  1  0
 13 14  1  0
 13 15  2  0
 12  6  2  0
M  ISO  2   1   1  14   2
M  END
>  <symbol>  (627) 
mePhe_4Cl

>  <m_abbr>  (627) 
mePhe_4Cl

>  <m_name>  (627) 
NMe-L-4-chlorophenylalanine

>  <m_type>  (627) 
aa

>  <m_subtype>  (627) 
modified

>  <m_Rgroups>  (627) 
[H],[OH]

>  <m_chem_types>  (627) 
1:backbone_n,2:backbone_c

>  <m_activation_policy>  (627) 
canonical-sites-v1

$$$$

     RDKit          2D

 16 16  0  0  0  0  0  0  0  0999 V2000
   -3.0227    2.2431    0.0000 R   0  0  0  0  0  1  0  0  0  0  0  0
   -1.8997    1.2486    0.0000 N   0  0  0  0  0  0  0  0  0  0  0  0
   -0.4770    1.7239    0.0000 C   0  0  0  0  0  0  0  0  0  0  0  0
   -2.1995   -0.2211    0.0000 C   0  0  0  0  0  0  0  0  0  0  0  0
   -1.0766   -1.2156    0.0000 C   0  0  0  0  0  0  0  0  0  0  0  0
    0.3462   -0.7404    0.0000 C   0  0  0  0  0  0  0  0  0  0  0  0
    0.6459    0.7294    0.0000 C   0  0  0  0  0  0  0  0  0  0  0  0
    2.0687    1.2046    0.0000 C   0  0  0  0  0  0  0  0  0  0  0  0
    3.1916    0.2101    0.0000 C   0  0  0  0  0  0  0  0  0  0  0  0
    4.6143    0.6854    0.0000 O   0  0  0  0  0  0  0  0  0  0  0  0
    5.7373   -0.3091    0.0000 C   0  0  0  0  0  0  0  0  0  0  0  0
    2.8918   -1.2596    0.0000 C   0  0  0  0  0  0  0  0  0  0  0  0
    1.4691   -1.7348    0.0000 C   0  0  0  0  0  0  0  0  0  0  0  0
   -3.6222   -0.6964    0.0000 C   0  0  0  0  0  0  0  0  0  0  0  0
   -4.7452    0.2981    0.0000 R   0  0  0  0  0  1  0  0  0  0  0  0
   -3.9220   -2.1661    0.0000 O   0  0  0  0  0  0  0  0  0  0  0  0
  1  2  1  0
  2  3  1  0
  2  4  1  0
  4  5  1  1
  5  6  1  0
  6  7  1  0
  7  8  2  0
  8  9  1  0
  9 10  1  0
 10 11  1  0
  9 12  2  0
 12 13  1  0
  4 14  1  0
 14 15  1  0
 14 16  2  0
 13  6  2  0
M  ISO  2   1   1  15   2
M  END
>  <symbol>  (628) 
mePhe_4OMe

>  <m_abbr>  (628) 
mePhe_4OMe

>  <m_name>  (628) 
NMe-L-4-methoxyphenylalanine

>  <m_type>  (628) 
aa

>  <m_subtype>  (628) 
modified

>  <m_Rgroups>  (628) 
[H],[OH]

>  <m_chem_types>  (628) 
1:backbone_n,2:backbone_c

>  <m_activation_policy>  (628) 
canonical-sites-v1

$$$$

     RDKit          2D

 15 15  0  0  0  0  0  0  0  0999 V2000
   -2.5933    2.2771    0.0000 R   0  0  0  0  0  1  0  0  0  0  0  0
   -1.4913    1.2594    0.0000 N   0  0  0  0  0  0  0  0  0  0  0  0
   -0.0590    1.7049    0.0000 C   0  0  0  0  0  0  0  0  0  0  0  0
   -1.8217   -0.2038    0.0000 C   0  0  0  0  0  0  0  0  0  0  0  0
   -0.7197   -1.2215    0.0000 C   0  0  0  0  0  0  0  0  0  0  0  0
    0.7126   -0.7760    0.0000 C   0  0  0  0  0  0  0  0  0  0  0  0
    1.0430    0.6872    0.0000 C   0  0  0  0  0  0  0  0  0  0  0  0
    2.4753    1.1326    0.0000 C   0  0  0  0  0  0  0  0  0  0  0  0
    3.5773    0.1149    0.0000 C   0  0  0  0  0  0  0  0  0  0  0  0
    5.0096    0.5604    0.0000 Br  0  0  0  0  0  0  0  0  0  0  0  0
    3.2469   -1.3482    0.0000 C   0  0  0  0  0  0  0  0  0  0  0  0
    1.8146   -1.7937    0.0000 C   0  0  0  0  0  0  0  0  0  0  0  0
   -3.2540   -0.6493    0.0000 C   0  0  0  0  0  0  0  0  0  0  0  0
   -4.3559    0.3684    0.0000 R   0  0  0  0  0  1  0  0  0  0  0  0
   -3.5844   -2.1124    0.0000 O   0  0  0  0  0  0  0  0  0  0  0  0
  1  2  1  0
  2  3  1  0
  2  4  1  0
  4  5  1  1
  5  6  1  0
  6  7  1  0
  7  8  2  0
  8  9  1  0
  9 10  1  0
  9 11  2  0
 11 12  1  0
  4 13  1  0
 13 14  1  0
 13 15  2  0
 12  6  2  0
M  ISO  2   1   1  14   2
M  END
>  <symbol>  (629) 
mePhe_4Br

>  <m_abbr>  (629) 
mePhe_4Br

>  <m_name>  (629) 
NMe-L-4-bromophenylalanine

>  <m_type>  (629) 
aa

>  <m_subtype>  (629) 
modified

>  <m_Rgroups>  (629) 
[H],[OH]

>  <m_chem_types>  (629) 
1:backbone_n,2:backbone_c

>  <m_activation_policy>  (629) 
canonical-sites-v1

$$$$

     RDKit          2D

 15 15  0  0  0  0  0  0  0  0999 V2000
   -2.9107    2.0342    0.0000 R   0  0  0  0  0  1  0  0  0  0  0  0
   -1.6606    1.2052    0.0000 N   0  0  0  0  0  0  0  0  0  0  0  0
   -0.3176    1.8733    0.0000 C   0  0  0  0  0  0  0  0  0  0  0  0
   -1.7535   -0.2919    0.0000 C   0  0  0  0  0  0  0  0  0  0  0  0
   -0.5034   -1.1210    0.0000 C   0  0  0  0  0  0  0  0  0  0  0  0
    0.8396   -0.4529    0.0000 C   0  0  0  0  0  0  0  0  0  0  0  0
    0.9325    1.0442    0.0000 C   0  0  0  0  0  0  0  0  0  0  0  0
    2.2755    1.7123    0.0000 C   0  0  0  0  0  0  0  0  0  0  0  0
    3.5256    0.8833    0.0000 C   0  0  0  0  0  0  0  0  0  0  0  0
    3.4327   -0.6138    0.0000 C   0  0  0  0  0  0  0  0  0  0  0  0
    4.6828   -1.4428    0.0000 F   0  0  0  0  0  0  0  0  0  0  0  0
    2.0897   -1.2819    0.0000 C   0  0  0  0  0  0  0  0  0  0  0  0
   -3.0965   -0.9600    0.0000 C   0  0  0  0  0  0  0  0  0  0  0  0
   -4.3466   -0.1310    0.0000 R   0  0  0  0  0  1  0  0  0  0  0  0
   -3.1894   -2.4572    0.0000 O   0  0  0  0  0  0  0  0  0  0  0  0
  1  2  1  0
  2  3  1  0
  2  4  1  0
  4  5  1  1
  5  6  1  0
  6  7  2  0
  7  8  1  0
  8  9  2  0
  9 10  1  0
 10 11  1  0
 10 12  2  0
  4 13  1  0
 13 14  1  0
 13 15  2  0
 12  6  1  0
M  ISO  2   1   1  14   2
M  END
>  <symbol>  (630) 
mePhe_3F

>  <m_abbr>  (630) 
mePhe_3F

>  <m_name>  (630) 
NMe-L-3-fluorophenylalanine

>  <m_type>  (630) 
aa

>  <m_subtype>  (630) 
modified

>  <m_Rgroups>  (630) 
[H],[OH]

>  <m_chem_types>  (630) 
1:backbone_n,2:backbone_c

>  <m_activation_policy>  (630) 
canonical-sites-v1

$$$$

     RDKit          2D

 16 16  0  0  0  0  0  0  0  0999 V2000
   -3.4567    1.7873    0.0000 R   0  0  0  0  0  1  0  0  0  0  0  0
   -2.1102    1.1263    0.0000 N   0  0  0  0  0  0  0  0  0  0  0  0
   -0.8645    1.9620    0.0000 C   0  0  0  0  0  0  0  0  0  0  0  0
   -2.0094   -0.3703    0.0000 C   0  0  0  0  0  0  0  0  0  0  0  0
   -0.6629   -1.0313    0.0000 C   0  0  0  0  0  0  0  0  0  0  0  0
    0.5828   -0.1956    0.0000 C   0  0  0  0  0  0  0  0  0  0  0  0
    0.4820    1.3010    0.0000 C   0  0  0  0  0  0  0  0  0  0  0  0
    1.7277    2.1366    0.0000 C   0  0  0  0  0  0  0  0  0  0  0  0
    3.0742    1.4756    0.0000 C   0  0  0  0  0  0  0  0  0  0  0  0
    3.1750   -0.0210    0.0000 C   0  0  0  0  0  0  0  0  0  0  0  0
    4.5215   -0.6820    0.0000 O   0  0  0  0  0  0  0  0  0  0  0  0
    4.6223   -2.1786    0.0000 C   0  0  0  0  0  0  0  0  0  0  0  0
    1.9293   -0.8566    0.0000 C   0  0  0  0  0  0  0  0  0  0  0  0
   -3.2551   -1.2059    0.0000 C   0  0  0  0  0  0  0  0  0  0  0  0
   -4.6016   -0.5449    0.0000 R   0  0  0  0  0  1  0  0  0  0  0  0
   -3.1543   -2.7025    0.0000 O   0  0  0  0  0  0  0  0  0  0  0  0
  1  2  1  0
  2  3  1  0
  2  4  1  0
  4  5  1  1
  5  6  1  0
  6  7  1  0
  7  8  2  0
  8  9  1  0
  9 10  2  0
 10 11  1  0
 11 12  1  0
 10 13  1  0
  4 14  1  0
 14 15  1  0
 14 16  2  0
 13  6  2  0
M  ISO  2   1   1  15   2
M  END
>  <symbol>  (631) 
mePhe_3OMe

>  <m_abbr>  (631) 
mePhe_3OMe

>  <m_name>  (631) 
NMe-L-3-methoxyphenylalanine

>  <m_type>  (631) 
aa

>  <m_subtype>  (631) 
modified

>  <m_Rgroups>  (631) 
[H],[OH]

>  <m_chem_types>  (631) 
1:backbone_n,2:backbone_c

>  <m_activation_policy>  (631) 
canonical-sites-v1

$$$$

     RDKit          2D

 20 21  0  0  0  0  0  0  0  0999 V2000
   -4.0435    2.4376    0.0000 R   0  0  0  0  0  1  0  0  0  0  0  0
   -3.0535    1.3107    0.0000 N   0  0  0  0  0  0  0  0  0  0  0  0
   -1.5826    1.6046    0.0000 C   0  0  0  0  0  0  0  0  0  0  0  0
   -3.5344   -0.1101    0.0000 C   0  0  0  0  0  0  0  0  0  0  0  0
   -2.5445   -1.2370    0.0000 C   0  0  0  0  0  0  0  0  0  0  0  0
   -1.0735   -0.9431    0.0000 C   0  0  0  0  0  0  0  0  0  0  0  0
   -0.5926    0.4777    0.0000 C   0  0  0  0  0  0  0  0  0  0  0  0
    0.8783    0.7716    0.0000 C   0  0  0  0  0  0  0  0  0  0  0  0
    1.8683   -0.3553    0.0000 C   0  0  0  0  0  0  0  0  0  0  0  0
    3.3393   -0.0614    0.0000 C   0  0  0  0  0  0  0  0  0  0  0  0
    4.3292   -1.1883    0.0000 C   0  0  0  0  0  0  0  0  0  0  0  0
    5.8002   -0.8944    0.0000 C   0  0  0  0  0  0  0  0  0  0  0  0
    6.2811    0.5264    0.0000 C   0  0  0  0  0  0  0  0  0  0  0  0
    5.2911    1.6533    0.0000 C   0  0  0  0  0  0  0  0  0  0  0  0
    3.8202    1.3594    0.0000 C   0  0  0  0  0  0  0  0  0  0  0  0
    1.3874   -1.7761    0.0000 C   0  0  0  0  0  0  0  0  0  0  0  0
   -0.0835   -2.0700    0.0000 C   0  0  0  0  0  0  0  0  0  0  0  0
   -5.0054   -0.4040    0.0000 C   0  0  0  0  0  0  0  0  0  0  0  0
   -5.9954    0.7229    0.0000 R   0  0  0  0  0  1  0  0  0  0  0  0
   -5.4863   -1.8248    0.0000 O   0  0  0  0  0  0  0  0  0  0  0  0
  1  2  1  0
  2  3  1  0
  2  4  1  0
  4  5  1  1
  5  6  1  0
  6  7  1  0
  7  8  2  0
  8  9  1  0
  9 10  1  0
 10 11  2  0
 11 12  1  0
 12 13  2  0
 13 14  1  0
 14 15  2  0
  9 16  2  0
 16 17  1  0
  4 18  1  0
 18 19  1  0
 18 20  2  0
 17  6  2  0
 15 10  1  0
M  ISO  2   1   1  19   2
M  END
>  <symbol>  (632) 
meBip

>  <m_abbr>  (632) 
meBip

>  <m_name>  (632) 
NMe-L-biphenylalanine

>  <m_type>  (632) 
aa

>  <m_subtype>  (632) 
modified

>  <m_Rgroups>  (632) 
[H],[OH]

>  <m_chem_types>  (632) 
1:backbone_n,2:backbone_c

>  <m_activation_policy>  (632) 
canonical-sites-v1

$$$$

     RDKit          2D

 21 22  0  0  0  0  0  0  0  0999 V2000
   -3.8219   -0.3542    0.0000 R   0  0  0  0  0  1  0  0  0  0  0  0
   -2.3389   -0.1296    0.0000 N   0  0  0  0  0  0  0  0  0  0  0  0
   -2.0069   -0.8544    0.0000 C   0  0  0  0  0  0  0  0  0  0  0  0
   -1.7918    1.2671    0.0000 C   0  0  0  0  0  0  0  0  0  0  0  0
   -0.3087    1.4917    0.0000 C   0  0  0  0  0  0  0  0  0  0  0  0
    0.6273    0.3196    0.0000 C   0  0  0  0  0  0  0  0  0  0  0  0
    2.1104    0.5442    0.0000 C   0  0  0  0  0  0  0  0  0  0  0  0
    3.0465   -0.6279    0.0000 C   0  0  0  0  0  0  0  0  0  0  0  0
    4.5296   -0.4033    0.0000 C   0  0  0  0  0  0  0  0  0  0  0  0
    5.0766    0.9934    0.0000 C   0  0  0  0  0  0  0  0  0  0  0  0
    4.1405    2.1655    0.0000 C   0  0  0  0  0  0  0  0  0  0  0  0
    2.6575    1.9409    0.0000 C   0  0  0  0  0  0  0  0  0  0  0  0
    0.0803   -1.0771    0.0000 C   0  0  0  0  0  0  0  0  0  0  0  0
   -1.4028   -1.3017    0.0000 C   0  0  0  0  0  0  0  0  0  0  0  0
   -1.9498   -2.6984    0.0000 C   0  0  0  0  0  0  0  0  0  0  0  0
   -1.0138   -3.8705    0.0000 C   0  0  0  0  0  0  0  0  0  0  0  0
    0.4693   -3.6459    0.0000 C   0  0  0  0  0  0  0  0  0  0  0  0
    1.0163   -2.2492    0.0000 C   0  0  0  0  0  0  0  0  0  0  0  0
   -2.7279    2.4392    0.0000 C   0  0  0  0  0  0  0  0  0  0  0  0
   -4.2110    2.2146    0.0000 R   0  0  0  0  0  1  0  0  0  0  0  0
   -2.1808    3.8359    0.0000 O   0  0  0  0  0  0  0  0  0  0  0  0
  1  2  1  0
  2  3  1  0
  2  4  1  0
  4  5  1  6
  5  6  1  0
  6  7  1  0
  7  8  2  0
  8  9  1  0
  9 10  2  0
 10 11  1  0
 11 12  2  0
  6 13  1  0
 13 14  2  0
 14 15  1  0
 15 16  2  0
 16 17  1  0
 17 18  2  0
  4 19  1  0
 19 20  1  0
 19 21  2  0
 12  7  1  0
 18 13  1  0
M  ISO  2   1   1  20   2
M  END
>  <symbol>  (633) 
meDip

>  <m_abbr>  (633) 
meDip

>  <m_name>  (633) 
NMe-L-3,3-diphenylalanine

>  <m_type>  (633) 
aa

>  <m_subtype>  (633) 
modified

>  <m_Rgroups>  (633) 
[H],[OH]

>  <m_chem_types>  (633) 
1:backbone_n,2:backbone_c

>  <m_activation_policy>  (633) 
canonical-sites-v1

$$$$

     RDKit          2D

 13 13  0  0  0  0  0  0  0  0999 V2000
    3.1731    1.2990    0.0000 R   0  0  0  0  0  1  0  0  0  0  0  0
    1.6731    1.2990    0.0000 N   0  0  0  0  0  0  0  0  0  0  0  0
    0.9231    2.5981    0.0000 C   0  0  0  0  0  0  0  0  0  0  0  0
    0.9231    0.0000    0.0000 C   0  0  0  0  0  0  0  0  0  0  0  0
    1.6731   -1.2990    0.0000 C   0  0  0  0  0  0  0  0  0  0  0  0
    3.1731   -1.2990    0.0000 R   0  0  0  0  0  1  0  0  0  0  0  0
    0.9231   -2.5981    0.0000 O   0  0  0  0  0  0  0  0  0  0  0  0
   -0.5769   -0.0000    0.0000 C   0  0  0  0  0  0  0  0  0  0  0  0
   -1.3269   -1.2990    0.0000 C   0  0  0  0  0  0  0  0  0  0  0  0
   -2.8269   -1.2990    0.0000 C   0  0  0  0  0  0  0  0  0  0  0  0
   -3.5769    0.0000    0.0000 C   0  0  0  0  0  0  0  0  0  0  0  0
   -2.8269    1.2990    0.0000 C   0  0  0  0  0  0  0  0  0  0  0  0
   -1.3269    1.2990    0.0000 C   0  0  0  0  0  0  0  0  0  0  0  0
  1  2  1  0
  2  3  1  0
  4  2  1  6
  4  5  1  0
  5  6  1  0
  5  7  2  0
  4  8  1  0
  8  9  1  0
  9 10  1  0
 10 11  1  0
 11 12  1  0
 12 13  1  0
 13  8  1  0
M  ISO  2   1   1   6   2
M  END
>  <symbol>  (634) 
meChg

>  <m_abbr>  (634) 
meChg

>  <m_name>  (634) 
NMe-L-cyclohexylglycine

>  <m_type>  (634) 
aa

>  <m_subtype>  (634) 
modified

>  <m_Rgroups>  (634) 
[H],[OH]

>  <m_chem_types>  (634) 
1:backbone_n,2:backbone_c

>  <m_activation_policy>  (634) 
canonical-sites-v1

$$$$

     RDKit          2D

 14 14  0  0  0  0  0  0  0  0999 V2000
   -2.3413    2.2101    0.0000 R   0  0  0  0  0  1  0  0  0  0  0  0
   -1.1930    1.2450    0.0000 N   0  0  0  0  0  0  0  0  0  0  0  0
    0.2170    1.7569    0.0000 C   0  0  0  0  0  0  0  0  0  0  0  0
   -1.4546   -0.2320    0.0000 C   0  0  0  0  0  0  0  0  0  0  0  0
   -0.3063   -1.1971    0.0000 C   0  0  0  0  0  0  0  0  0  0  0  0
    1.1037   -0.6851    0.0000 C   0  0  0  0  0  0  0  0  0  0  0  0
    1.3653    0.7919    0.0000 C   0  0  0  0  0  0  0  0  0  0  0  0
    2.7752    1.3038    0.0000 C   0  0  0  0  0  0  0  0  0  0  0  0
    3.9235    0.3387    0.0000 N   0  0  0  0  0  0  0  0  0  0  0  0
    3.6619   -1.1383    0.0000 C   0  0  0  0  0  0  0  0  0  0  0  0
    2.2520   -1.6502    0.0000 C   0  0  0  0  0  0  0  0  0  0  0  0
   -2.8645   -0.7439    0.0000 C   0  0  0  0  0  0  0  0  0  0  0  0
   -4.0128    0.2211    0.0000 R   0  0  0  0  0  1  0  0  0  0  0  0
   -3.1261   -2.2209    0.0000 O   0  0  0  0  0  0  0  0  0  0  0  0
  1  2  1  0
  2  3  1  0
  2  4  1  0
  4  5  1  1
  5  6  1  0
  6  7  1  0
  7  8  2  0
  8  9  1  0
  9 10  2  0
 10 11  1  0
  4 12  1  0
 12 13  1  0
 12 14  2  0
 11  6  2  0
M  ISO  2   1   1  13   2
M  END
>  <symbol>  (635) 
me4Pal

>  <m_abbr>  (635) 
me4Pal

>  <m_name>  (635) 
NMe-L-4-pyridylalanine

>  <m_type>  (635) 
aa

>  <m_subtype>  (635) 
modified

>  <m_Rgroups>  (635) 
[H],[OH]

>  <m_chem_types>  (635) 
1:backbone_n,2:backbone_c

>  <m_activation_policy>  (635) 
canonical-sites-v1

$$$$

     RDKit          2D

 14 14  0  0  0  0  0  0  0  0999 V2000
   -2.3413    2.2101    0.0000 R   0  0  0  0  0  1  0  0  0  0  0  0
   -1.1930    1.2450    0.0000 N   0  0  0  0  0  0  0  0  0  0  0  0
    0.2170    1.7569    0.0000 C   0  0  0  0  0  0  0  0  0  0  0  0
   -1.4546   -0.2320    0.0000 C   0  0  0  0  0  0  0  0  0  0  0  0
   -0.3063   -1.1971    0.0000 C   0  0  0  0  0  0  0  0  0  0  0  0
    1.1037   -0.6851    0.0000 C   0  0  0  0  0  0  0  0  0  0  0  0
    1.3653    0.7919    0.0000 C   0  0  0  0  0  0  0  0  0  0  0  0
    2.7752    1.3038    0.0000 C   0  0  0  0  0  0  0  0  0  0  0  0
    3.9235    0.3387    0.0000 C   0  0  0  0  0  0  0  0  0  0  0  0
    3.6619   -1.1383    0.0000 N   0  0  0  0  0  0  0  0  0  0  0  0
    2.2520   -1.6502    0.0000 C   0  0  0  0  0  0  0  0  0  0  0  0
   -2.8645   -0.7439    0.0000 C   0  0  0  0  0  0  0  0  0  0  0  0
   -4.0128    0.2211    0.0000 R   0  0  0  0  0  1  0  0  0  0  0  0
   -3.1261   -2.2209    0.0000 O   0  0  0  0  0  0  0  0  0  0  0  0
  1  2  1  0
  2  3  1  0
  2  4  1  0
  4  5  1  1
  5  6  1  0
  6  7  2  0
  7  8  1  0
  8  9  2  0
  9 10  1  0
 10 11  2  0
  4 12  1  0
 12 13  1  0
 12 14  2  0
 11  6  1  0
M  ISO  2   1   1  13   2
M  END
>  <symbol>  (636) 
me3Pal

>  <m_abbr>  (636) 
me3Pal

>  <m_name>  (636) 
NMe-L-3-pyridylalanine

>  <m_type>  (636) 
aa

>  <m_subtype>  (636) 
modified

>  <m_Rgroups>  (636) 
[H],[OH]

>  <m_chem_types>  (636) 
1:backbone_n,2:backbone_c

>  <m_activation_policy>  (636) 
canonical-sites-v1

$$$$

     RDKit          2D

 18 18  0  0  0  0  0  0  0  0999 V2000
   -3.3850    2.3467    0.0000 R   0  0  0  0  0  1  0  0  0  0  0  0
   -2.3401    1.2705    0.0000 N   0  0  0  0  0  0  0  0  0  0  0  0
   -0.8856    1.6374    0.0000 C   0  0  0  0  0  0  0  0  0  0  0  0
   -2.7496   -0.1725    0.0000 C   0  0  0  0  0  0  0  0  0  0  0  0
   -1.7047   -1.2487    0.0000 C   0  0  0  0  0  0  0  0  0  0  0  0
   -0.2503   -0.8818    0.0000 C   0  0  0  0  0  0  0  0  0  0  0  0
    0.1593    0.5612    0.0000 C   0  0  0  0  0  0  0  0  0  0  0  0
    1.6137    0.9280    0.0000 C   0  0  0  0  0  0  0  0  0  0  0  0
    2.6586   -0.1482    0.0000 C   0  0  0  0  0  0  0  0  0  0  0  0
    4.1131    0.2186    0.0000 C   0  0  0  0  0  0  0  0  0  0  0  0
    5.5675    0.5855    0.0000 F   0  0  0  0  0  0  0  0  0  0  0  0
    4.4799   -1.2358    0.0000 F   0  0  0  0  0  0  0  0  0  0  0  0
    3.7463    1.6731    0.0000 F   0  0  0  0  0  0  0  0  0  0  0  0
    2.2491   -1.5912    0.0000 C   0  0  0  0  0  0  0  0  0  0  0  0
    0.7946   -1.9580    0.0000 C   0  0  0  0  0  0  0  0  0  0  0  0
   -4.2041   -0.5393    0.0000 C   0  0  0  0  0  0  0  0  0  0  0  0
   -5.2490    0.5369    0.0000 R   0  0  0  0  0  1  0  0  0  0  0  0
   -4.6136   -1.9823    0.0000 O   0  0  0  0  0  0  0  0  0  0  0  0
  1  2  1  0
  2  3  1  0
  2  4  1  0
  4  5  1  1
  5  6  1  0
  6  7  1  0
  7  8  2  0
  8  9  1  0
  9 10  1  0
 10 11  1  0
 10 12  1  0
 10 13  1  0
  9 14  2  0
 14 15  1  0
  4 16  1  0
 16 17  1  0
 16 18  2  0
 15  6  2  0
M  ISO  2   1   1  17   2
M  END
>  <symbol>  (637) 
mePhe_4CF3

>  <m_abbr>  (637) 
mePhe_4CF3

>  <m_name>  (637) 
NMe-L-4-(trifluoromethyl)phenylalanine

>  <m_type>  (637) 
aa

>  <m_subtype>  (637) 
modified

>  <m_Rgroups>  (637) 
[H],[OH]

>  <m_chem_types>  (637) 
1:backbone_n,2:backbone_c

>  <m_activation_policy>  (637) 
canonical-sites-v1

$$$$

     RDKit          2D

 18 18  0  0  0  0  0  0  0  0999 V2000
   -3.3850    2.3467    0.0000 R   0  0  0  0  0  1  0  0  0  0  0  0
   -2.3401    1.2705    0.0000 N   0  0  0  0  0  0  0  0  0  0  0  0
   -0.8856    1.6374    0.0000 C   0  0  0  0  0  0  0  0  0  0  0  0
   -2.7496   -0.1725    0.0000 C   0  0  0  0  0  0  0  0  0  0  0  0
   -1.7047   -1.2487    0.0000 C   0  0  0  0  0  0  0  0  0  0  0  0
   -0.2503   -0.8818    0.0000 C   0  0  0  0  0  0  0  0  0  0  0  0
    0.1593    0.5612    0.0000 C   0  0  0  0  0  0  0  0  0  0  0  0
    1.6137    0.9280    0.0000 C   0  0  0  0  0  0  0  0  0  0  0  0
    2.6586   -0.1482    0.0000 C   0  0  0  0  0  0  0  0  0  0  0  0
    4.1131    0.2186    0.0000 C   0  0  0  0  0  0  0  0  0  0  0  0
    4.4799   -1.2358    0.0000 C   0  0  0  0  0  0  0  0  0  0  0  0
    3.7463    1.6731    0.0000 C   0  0  0  0  0  0  0  0  0  0  0  0
    5.5675    0.5855    0.0000 C   0  0  0  0  0  0  0  0  0  0  0  0
    2.2491   -1.5912    0.0000 C   0  0  0  0  0  0  0  0  0  0  0  0
    0.7946   -1.9580    0.0000 C   0  0  0  0  0  0  0  0  0  0  0  0
   -4.2041   -0.5393    0.0000 C   0  0  0  0  0  0  0  0  0  0  0  0
   -5.2490    0.5369    0.0000 R   0  0  0  0  0  1  0  0  0  0  0  0
   -4.6136   -1.9823    0.0000 O   0  0  0  0  0  0  0  0  0  0  0  0
  1  2  1  0
  2  3  1  0
  2  4  1  0
  4  5  1  1
  5  6  1  0
  6  7  1  0
  7  8  2  0
  8  9  1  0
  9 10  1  0
 10 11  1  0
 10 12  1  0
 10 13  1  0
  9 14  2  0
 14 15  1  0
  4 16  1  0
 16 17  1  0
 16 18  2  0
 15  6  2  0
M  ISO  2   1   1  17   2
M  END
>  <symbol>  (638) 
mePhe_4tBu

>  <m_abbr>  (638) 
mePhe_4tBu

>  <m_name>  (638) 
NMe-L-4-tert-butylphenylalanine

>  <m_type>  (638) 
aa

>  <m_subtype>  (638) 
modified

>  <m_Rgroups>  (638) 
[H],[OH]

>  <m_chem_types>  (638) 
1:backbone_n,2:backbone_c

>  <m_activation_policy>  (638) 
canonical-sites-v1

$$$$

     RDKit          2D

  8  7  0  0  0  0  0  0  0  0999 V2000
   -1.2990    1.6875    0.0000 R   0  0  0  0  0  1  0  0  0  0  0  0
   -1.2990    0.1875    0.0000 N   0  0  0  0  0  0  0  0  0  0  0  0
   -2.5981   -0.5625    0.0000 C   0  0  0  0  0  0  0  0  0  0  0  0
    0.0000   -0.5625    0.0000 C   0  0  0  0  0  0  0  0  0  0  0  0
    0.0000   -2.0625    0.0000 C   0  0  0  0  0  0  0  0  0  0  0  0
    1.2990    0.1875    0.0000 C   0  0  0  0  0  0  0  0  0  0  0  0
    2.5981   -0.5625    0.0000 R   0  0  0  0  0  1  0  0  0  0  0  0
    1.2990    1.6875    0.0000 O   0  0  0  0  0  0  0  0  0  0  0  0
  1  2  1  0
  2  3  1  0
  2  4  1  0
  4  5  1  1
  4  6  1  0
  6  7  1  0
  6  8  2  0
M  ISO  2   1   1   7   2
M  END
>  <symbol>  (639) 
D_meA

>  <m_abbr>  (639) 
D_meA

>  <m_name>  (639) 
NMe-D-alanine

>  <m_type>  (639) 
aa

>  <m_subtype>  (639) 
modified

>  <m_Rgroups>  (639) 
[H],[OH]

>  <m_chem_types>  (639) 
1:backbone_n,2:backbone_c

>  <m_activation_policy>  (639) 
canonical-sites-v1

$$$$

     RDKit          2D

 14 14  0  0  0  0  0  0  0  0999 V2000
   -2.3413    2.2101    0.0000 R   0  0  0  0  0  1  0  0  0  0  0  0
   -1.1930    1.2450    0.0000 N   0  0  0  0  0  0  0  0  0  0  0  0
    0.2170    1.7569    0.0000 C   0  0  0  0  0  0  0  0  0  0  0  0
   -1.4546   -0.2320    0.0000 C   0  0  0  0  0  0  0  0  0  0  0  0
   -0.3063   -1.1971    0.0000 C   0  0  0  0  0  0  0  0  0  0  0  0
    1.1037   -0.6851    0.0000 C   0  0  0  0  0  0  0  0  0  0  0  0
    1.3653    0.7919    0.0000 C   0  0  0  0  0  0  0  0  0  0  0  0
    2.7752    1.3038    0.0000 C   0  0  0  0  0  0  0  0  0  0  0  0
    3.9235    0.3387    0.0000 C   0  0  0  0  0  0  0  0  0  0  0  0
    3.6619   -1.1383    0.0000 C   0  0  0  0  0  0  0  0  0  0  0  0
    2.2520   -1.6502    0.0000 C   0  0  0  0  0  0  0  0  0  0  0  0
   -2.8645   -0.7439    0.0000 C   0  0  0  0  0  0  0  0  0  0  0  0
   -4.0128    0.2211    0.0000 R   0  0  0  0  0  1  0  0  0  0  0  0
   -3.1261   -2.2209    0.0000 O   0  0  0  0  0  0  0  0  0  0  0  0
  1  2  1  0
  2  3  1  0
  2  4  1  0
  4  5  1  6
  5  6  1  0
  6  7  2  0
  7  8  1  0
  8  9  2  0
  9 10  1  0
 10 11  2  0
  4 12  1  0
 12 13  1  0
 12 14  2  0
 11  6  1  0
M  ISO  2   1   1  13   2
M  END
>  <symbol>  (640) 
D_meF

>  <m_abbr>  (640) 
D_meF

>  <m_name>  (640) 
NMe-D-phenylalanine

>  <m_type>  (640) 
aa

>  <m_subtype>  (640) 
modified

>  <m_Rgroups>  (640) 
[H],[OH]

>  <m_chem_types>  (640) 
1:backbone_n,2:backbone_c

>  <m_activation_policy>  (640) 
canonical-sites-v1

$$$$

     RDKit          2D

 11 10  0  0  0  0  0  0  0  0999 V2000
   -3.0813    0.0866    0.0000 R   0  0  0  0  0  1  0  0  0  0  0  0
   -1.8784   -0.8095    0.0000 N   0  0  0  0  0  0  0  0  0  0  0  0
   -2.0531   -2.2993    0.0000 C   0  0  0  0  0  0  0  0  0  0  0  0
   -0.5009   -0.2159    0.0000 C   0  0  0  0  0  0  0  0  0  0  0  0
    0.7020   -1.1120    0.0000 C   0  0  0  0  0  0  0  0  0  0  0  0
    2.0795   -0.5184    0.0000 C   0  0  0  0  0  0  0  0  0  0  0  0
    3.2824   -1.4145    0.0000 C   0  0  0  0  0  0  0  0  0  0  0  0
    2.2541    0.9714    0.0000 C   0  0  0  0  0  0  0  0  0  0  0  0
   -0.3263    1.2739    0.0000 C   0  0  0  0  0  0  0  0  0  0  0  0
    1.0513    1.8676    0.0000 R   0  0  0  0  0  1  0  0  0  0  0  0
   -1.5291    2.1701    0.0000 O   0  0  0  0  0  0  0  0  0  0  0  0
  1  2  1  0
  2  3  1  0
  2  4  1  0
  4  5  1  1
  5  6  1  0
  6  7  1  0
  6  8  1  0
  4  9  1  0
  9 10  1  0
  9 11  2  0
M  ISO  2   1   1  10   2
M  END
>  <symbol>  (641) 
D_meL

>  <m_abbr>  (641) 
D_meL

>  <m_name>  (641) 
NMe-D-leucine

>  <m_type>  (641) 
aa

>  <m_subtype>  (641) 
modified

>  <m_Rgroups>  (641) 
[H],[OH]

>  <m_chem_types>  (641) 
1:backbone_n,2:backbone_c

>  <m_activation_policy>  (641) 
canonical-sites-v1

$$$$

     RDKit          2D

 10  9  0  0  0  0  0  0  0  0999 V2000
   -1.2990   -2.2500    0.0000 R   0  0  0  0  0  1  0  0  0  0  0  0
    0.0000   -1.5000    0.0000 N   0  0  0  0  0  0  0  0  0  0  0  0
    1.2990   -2.2500    0.0000 C   0  0  0  0  0  0  0  0  0  0  0  0
    0.0000    0.0000    0.0000 C   0  0  0  0  0  0  0  0  0  0  0  0
   -1.2990    0.7500    0.0000 C   0  0  0  0  0  0  0  0  0  0  0  0
   -1.2990    2.2500    0.0000 R   0  0  0  0  0  1  0  0  0  0  0  0
   -2.5981   -0.0000    0.0000 O   0  0  0  0  0  0  0  0  0  0  0  0
    1.2990    0.7500    0.0000 C   0  0  0  0  0  0  0  0  0  0  0  0
    1.2990    2.2500    0.0000 C   0  0  0  0  0  0  0  0  0  0  0  0
    2.5981    0.0000    0.0000 C   0  0  0  0  0  0  0  0  0  0  0  0
  1  2  1  0
  2  3  1  0
  2  4  1  0
  4  5  1  0
  5  6  1  0
  5  7  2  0
  4  8  1  1
  8  9  1  0
  8 10  1  0
M  ISO  2   1   1   6   2
M  END
>  <symbol>  (642) 
D_meV

>  <m_abbr>  (642) 
D_meV

>  <m_name>  (642) 
NMe-D-valine

>  <m_type>  (642) 
aa

>  <m_subtype>  (642) 
modified

>  <m_Rgroups>  (642) 
[H],[OH]

>  <m_chem_types>  (642) 
1:backbone_n,2:backbone_c

>  <m_activation_policy>  (642) 
canonical-sites-v1

$$$$

     RDKit          2D

 11 10  0  0  0  0  0  0  0  0999 V2000
   -2.0616   -1.9640    0.0000 R   0  0  0  0  0  1  0  0  0  0  0  0
   -0.6443   -1.4730    0.0000 N   0  0  0  0  0  0  0  0  0  0  0  0
    0.4896   -2.4550    0.0000 C   0  0  0  0  0  0  0  0  0  0  0  0
   -0.3608    0.0000    0.0000 C   0  0  0  0  0  0  0  0  0  0  0  0
   -1.4947    0.9820    0.0000 C   0  0  0  0  0  0  0  0  0  0  0  0
   -1.2112    2.4550    0.0000 R   0  0  0  0  0  1  0  0  0  0  0  0
   -2.9120    0.4910    0.0000 O   0  0  0  0  0  0  0  0  0  0  0  0
    1.0566    0.4910    0.0000 C   0  0  0  0  0  0  0  0  0  0  0  0
    1.3401    1.9640    0.0000 C   0  0  0  0  0  0  0  0  0  0  0  0
    2.1905   -0.4910    0.0000 C   0  0  0  0  0  0  0  0  0  0  0  0
    3.6078   -0.0000    0.0000 C   0  0  0  0  0  0  0  0  0  0  0  0
  1  2  1  0
  2  3  1  0
  4  2  1  1
  4  5  1  0
  5  6  1  0
  5  7  2  0
  4  8  1  0
  8  9  1  1
  8 10  1  0
 10 11  1  0
M  ISO  2   1   1   6   2
M  END
>  <symbol>  (643) 
D_meI

>  <m_abbr>  (643) 
D_meI

>  <m_name>  (643) 
NMe-D-isoleucine

>  <m_type>  (643) 
aa

>  <m_subtype>  (643) 
modified

>  <m_Rgroups>  (643) 
[H],[OH]

>  <m_chem_types>  (643) 
1:backbone_n,2:backbone_c

>  <m_activation_policy>  (643) 
canonical-sites-v1

$$$$

     RDKit          2D

 16 16  0  0  0  0  0  0  0  0999 V2000
   -3.0227    2.2431    0.0000 R   0  0  0  0  0  1  0  0  0  0  0  0
   -1.8997    1.2486    0.0000 N   0  0  0  0  0  0  0  0  0  0  0  0
   -0.4770    1.7239    0.0000 C   0  0  0  0  0  0  0  0  0  0  0  0
   -2.1995   -0.2211    0.0000 C   0  0  0  0  0  0  0  0  0  0  0  0
   -1.0766   -1.2156    0.0000 C   0  0  0  0  0  0  0  0  0  0  0  0
    0.3462   -0.7404    0.0000 C   0  0  0  0  0  0  0  0  0  0  0  0
    0.6459    0.7294    0.0000 C   0  0  0  0  0  0  0  0  0  0  0  0
    2.0687    1.2046    0.0000 C   0  0  0  0  0  0  0  0  0  0  0  0
    3.1916    0.2101    0.0000 C   0  0  0  0  0  0  0  0  0  0  0  0
    4.6143    0.6854    0.0000 O   0  0  0  0  0  0  0  0  0  0  0  0
    5.7373   -0.3091    0.0000 R   0  0  0  0  0  1  0  0  0  0  0  0
    2.8918   -1.2596    0.0000 C   0  0  0  0  0  0  0  0  0  0  0  0
    1.4691   -1.7348    0.0000 C   0  0  0  0  0  0  0  0  0  0  0  0
   -3.6222   -0.6964    0.0000 C   0  0  0  0  0  0  0  0  0  0  0  0
   -4.7452    0.2981    0.0000 R   0  0  0  0  0  1  0  0  0  0  0  0
   -3.9220   -2.1661    0.0000 O   0  0  0  0  0  0  0  0  0  0  0  0
  1  2  1  0
  2  3  1  0
  2  4  1  0
  4  5  1  6
  5  6  1  0
  6  7  1  0
  7  8  2  0
  8  9  1  0
  9 10  1  0
 10 11  1  0
  9 12  2  0
 12 13  1  0
  4 14  1  0
 14 15  1  0
 14 16  2  0
 13  6  2  0
M  ISO  3   1   1  11   4  15   2
M  END
>  <symbol>  (644) 
D_meY

>  <m_abbr>  (644) 
D_meY

>  <m_name>  (644) 
NMe-D-tyrosine

>  <m_type>  (644) 
aa

>  <m_subtype>  (644) 
modified

>  <m_Rgroups>  (644) 
[H],[OH],None,[H]

>  <m_chem_types>  (644) 
1:backbone_n,2:backbone_c,4:aryl_phenol_o

>  <m_activation_policy>  (644) 
canonical-sites-v1

$$$$

     RDKit          2D

 10  9  0  0  0  0  0  0  0  0999 V2000
   -2.8539   -0.2134    0.0000 R   0  0  0  0  0  1  0  0  0  0  0  0
   -1.5385   -0.9344    0.0000 N   0  0  0  0  0  0  0  0  0  0  0  0
   -1.5052   -2.4340    0.0000 C   0  0  0  0  0  0  0  0  0  0  0  0
   -0.2564   -0.1557    0.0000 C   0  0  0  0  0  0  0  0  0  0  0  0
    1.0589   -0.8767    0.0000 C   0  0  0  0  0  0  0  0  0  0  0  0
    2.3410   -0.0981    0.0000 O   0  0  0  0  0  0  0  0  0  0  0  0
    3.6564   -0.8191    0.0000 R   0  0  0  0  0  1  0  0  0  0  0  0
   -0.2897    1.3439    0.0000 C   0  0  0  0  0  0  0  0  0  0  0  0
    0.9924    2.1225    0.0000 R   0  0  0  0  0  1  0  0  0  0  0  0
   -1.6051    2.0649    0.0000 O   0  0  0  0  0  0  0  0  0  0  0  0
  1  2  1  0
  2  3  1  0
  2  4  1  0
  4  5  1  1
  5  6  1  0
  6  7  1  0
  4  8  1  0
  8  9  1  0
  8 10  2  0
M  ISO  3   1   1   7   4   9   2
M  END
>  <symbol>  (645) 
D_meS

>  <m_abbr>  (645) 
D_meS

>  <m_name>  (645) 
NMe-D-serine

>  <m_type>  (645) 
aa

>  <m_subtype>  (645) 
modified

>  <m_Rgroups>  (645) 
[H],[OH],None,[H]

>  <m_chem_types>  (645) 
1:backbone_n,2:backbone_c,4:hydroxyl

>  <m_activation_policy>  (645) 
canonical-sites-v1

$$$$

     RDKit          2D

 11 10  0  0  0  0  0  0  0  0999 V2000
   -3.3018   -0.2248    0.0000 R   0  0  0  0  0  1  0  0  0  0  0  0
   -1.9832   -0.9398    0.0000 N   0  0  0  0  0  0  0  0  0  0  0  0
   -1.9430   -2.4392    0.0000 C   0  0  0  0  0  0  0  0  0  0  0  0
   -0.7047   -0.1553    0.0000 C   0  0  0  0  0  0  0  0  0  0  0  0
    0.6140   -0.8702    0.0000 C   0  0  0  0  0  0  0  0  0  0  0  0
    1.8925   -0.0858    0.0000 C   0  0  0  0  0  0  0  0  0  0  0  0
    3.2111   -0.8007    0.0000 C   0  0  0  0  0  0  0  0  0  0  0  0
    4.4896   -0.0162    0.0000 C   0  0  0  0  0  0  0  0  0  0  0  0
   -0.7448    1.3442    0.0000 C   0  0  0  0  0  0  0  0  0  0  0  0
    0.5337    2.1287    0.0000 R   0  0  0  0  0  1  0  0  0  0  0  0
   -2.0634    2.0592    0.0000 O   0  0  0  0  0  0  0  0  0  0  0  0
  1  2  1  0
  2  3  1  0
  2  4  1  0
  4  5  1  1
  5  6  1  0
  6  7  1  0
  7  8  1  0
  4  9  1  0
  9 10  1  0
  9 11  2  0
M  ISO  2   1   1  10   2
M  END
>  <symbol>  (646) 
D_meNle

>  <m_abbr>  (646) 
D_meNle

>  <m_name>  (646) 
NMe-D-norleucine

>  <m_type>  (646) 
aa

>  <m_subtype>  (646) 
modified

>  <m_Rgroups>  (646) 
[H],[OH]

>  <m_chem_types>  (646) 
1:backbone_n,2:backbone_c

>  <m_activation_policy>  (646) 
canonical-sites-v1

$$$$

     RDKit          2D

 12 11  0  0  0  0  0  0  0  0999 V2000
   -1.2669    2.4028    0.0000 R   0  0  0  0  0  1  0  0  0  0  0  0
   -1.8583    1.0242    0.0000 N   0  0  0  0  0  0  0  0  0  0  0  0
   -3.3478    0.8470    0.0000 R   0  0  0  0  0  1  0  0  0  0  0  0
   -0.9601   -0.1771    0.0000 C   0  0  0  0  0  0  0  0  0  0  0  0
   -2.1614   -1.0753    0.0000 C   0  0  0  0  0  0  0  0  0  0  0  0
    0.2413    0.7210    0.0000 C   0  0  0  0  0  0  0  0  0  0  0  0
    1.6198    0.1297    0.0000 C   0  0  0  0  0  0  0  0  0  0  0  0
    2.8212    1.0279    0.0000 S   0  0  0  0  0  0  0  0  0  0  0  0
    4.1997    0.4366    0.0000 C   0  0  0  0  0  0  0  0  0  0  0  0
   -0.0619   -1.3785    0.0000 C   0  0  0  0  0  0  0  0  0  0  0  0
    1.4276   -1.2013    0.0000 R   0  0  0  0  0  1  0  0  0  0  0  0
   -0.6532   -2.7570    0.0000 O   0  0  0  0  0  0  0  0  0  0  0  0
  1  2  1  0
  2  3  1  0
  2  4  1  0
  4  5  1  6
  4  6  1  0
  6  7  1  0
  7  8  1  0
  8  9  1  0
  4 10  1  0
 10 11  1  0
 10 12  2  0
M  ISO  3   1   1   3   3  11   2
M  END
>  <symbol>  (647) 
aMeMet

>  <m_abbr>  (647) 
aMeMet

>  <m_name>  (647) 
L-alpha-methylmethionine (S)

>  <m_type>  (647) 
aa

>  <m_subtype>  (647) 
modified

>  <m_Rgroups>  (647) 
[H],[OH],[H]

>  <m_chem_types>  (647) 
1:backbone_n,2:backbone_c,3:backbone_n_mod

>  <m_activation_policy>  (647) 
canonical-sites-v1

$$$$

     RDKit          2D

 12 11  0  0  0  0  0  0  0  0999 V2000
   -1.2669    2.4028    0.0000 R   0  0  0  0  0  1  0  0  0  0  0  0
   -1.8583    1.0242    0.0000 N   0  0  0  0  0  0  0  0  0  0  0  0
   -3.3478    0.8470    0.0000 R   0  0  0  0  0  1  0  0  0  0  0  0
   -0.9601   -0.1771    0.0000 C   0  0  0  0  0  0  0  0  0  0  0  0
   -2.1614   -1.0753    0.0000 C   0  0  0  0  0  0  0  0  0  0  0  0
    0.2413    0.7210    0.0000 C   0  0  0  0  0  0  0  0  0  0  0  0
    1.6198    0.1297    0.0000 C   0  0  0  0  0  0  0  0  0  0  0  0
    2.8212    1.0279    0.0000 C   0  0  0  0  0  0  0  0  0  0  0  0
    4.1997    0.4366    0.0000 C   0  0  0  0  0  0  0  0  0  0  0  0
   -0.0619   -1.3785    0.0000 C   0  0  0  0  0  0  0  0  0  0  0  0
    1.4276   -1.2013    0.0000 R   0  0  0  0  0  1  0  0  0  0  0  0
   -0.6532   -2.7570    0.0000 O   0  0  0  0  0  0  0  0  0  0  0  0
  1  2  1  0
  2  3  1  0
  2  4  1  0
  4  5  1  6
  4  6  1  0
  6  7  1  0
  7  8  1  0
  8  9  1  0
  4 10  1  0
 10 11  1  0
 10 12  2  0
M  ISO  3   1   1   3   3  11   2
M  END
>  <symbol>  (648) 
aMeNle

>  <m_abbr>  (648) 
aMeNle

>  <m_name>  (648) 
L-alpha-methylnorleucine (S)

>  <m_type>  (648) 
aa

>  <m_subtype>  (648) 
modified

>  <m_Rgroups>  (648) 
[H],[OH],[H]

>  <m_chem_types>  (648) 
1:backbone_n,2:backbone_c,3:backbone_n_mod

>  <m_activation_policy>  (648) 
canonical-sites-v1

$$$$

     RDKit          2D

 11 10  0  0  0  0  0  0  0  0999 V2000
   -1.2617    2.2709    0.0000 R   0  0  0  0  0  1  0  0  0  0  0  0
   -1.6267    0.8160    0.0000 N   0  0  0  0  0  0  0  0  0  0  0  0
   -3.0691    0.4046    0.0000 R   0  0  0  0  0  1  0  0  0  0  0  0
   -0.5491   -0.2275    0.0000 C   0  0  0  0  0  0  0  0  0  0  0  0
   -1.5926   -1.3050    0.0000 C   0  0  0  0  0  0  0  0  0  0  0  0
    0.4944    0.8500    0.0000 C   0  0  0  0  0  0  0  0  0  0  0  0
    1.9493    0.4851    0.0000 C   0  0  0  0  0  0  0  0  0  0  0  0
    2.9928    1.5626    0.0000 C   0  0  0  0  0  0  0  0  0  0  0  0
    0.5284   -1.2710    0.0000 C   0  0  0  0  0  0  0  0  0  0  0  0
    1.9709   -0.8596    0.0000 R   0  0  0  0  0  1  0  0  0  0  0  0
    0.1634   -2.7260    0.0000 O   0  0  0  0  0  0  0  0  0  0  0  0
  1  2  1  0
  2  3  1  0
  2  4  1  0
  4  5  1  6
  4  6  1  0
  6  7  1  0
  7  8  1  0
  4  9  1  0
  9 10  1  0
  9 11  2  0
M  ISO  3   1   1   3   3  10   2
M  END
>  <symbol>  (649) 
aMeNva

>  <m_abbr>  (649) 
aMeNva

>  <m_name>  (649) 
L-alpha-methylnorvaline (S)

>  <m_type>  (649) 
aa

>  <m_subtype>  (649) 
modified

>  <m_Rgroups>  (649) 
[H],[OH],[H]

>  <m_chem_types>  (649) 
1:backbone_n,2:backbone_c,3:backbone_n_mod

>  <m_activation_policy>  (649) 
canonical-sites-v1

$$$$

     RDKit          2D

 10  9  0  0  0  0  0  0  0  0999 V2000
   -2.0677    1.5945    0.0000 R   0  0  0  0  0  1  0  0  0  0  0  0
   -1.6378    0.1574    0.0000 N   0  0  0  0  0  0  0  0  0  0  0  0
   -2.6675   -0.9334    0.0000 R   0  0  0  0  0  1  0  0  0  0  0  0
   -0.1783   -0.1889    0.0000 C   0  0  0  0  0  0  0  0  0  0  0  0
   -0.5246   -1.6484    0.0000 C   0  0  0  0  0  0  0  0  0  0  0  0
    0.1680    1.2705    0.0000 C   0  0  0  0  0  0  0  0  0  0  0  0
    1.6050    1.7004    0.0000 C   0  0  0  0  0  0  0  0  0  0  0  0
    1.2811   -0.5352    0.0000 C   0  0  0  0  0  0  0  0  0  0  0  0
    2.3108    0.5556    0.0000 R   0  0  0  0  0  1  0  0  0  0  0  0
    1.7110   -1.9723    0.0000 O   0  0  0  0  0  0  0  0  0  0  0  0
  1  2  1  0
  2  3  1  0
  2  4  1  0
  4  5  1  6
  4  6  1  0
  6  7  1  0
  4  8  1  0
  8  9  1  0
  8 10  2  0
M  ISO  3   1   1   3   3   9   2
M  END
>  <symbol>  (650) 
aMeAbu

>  <m_abbr>  (650) 
aMeAbu

>  <m_name>  (650) 
L-alpha-methyl-Abu (S)

>  <m_type>  (650) 
aa

>  <m_subtype>  (650) 
modified

>  <m_Rgroups>  (650) 
[H],[OH],[H]

>  <m_chem_types>  (650) 
1:backbone_n,2:backbone_c,3:backbone_n_mod

>  <m_activation_policy>  (650) 
canonical-sites-v1

$$$$

     RDKit          2D

 12 11  0  0  0  0  0  0  0  0999 V2000
   -1.9405   -1.0935    0.0000 R   0  0  0  0  0  1  0  0  0  0  0  0
   -0.4893   -1.4732    0.0000 N   0  0  0  0  0  0  0  0  0  0  0  0
   -0.0926   -2.9197    0.0000 R   0  0  0  0  0  1  0  0  0  0  0  0
    0.5651   -0.4063    0.0000 C   0  0  0  0  0  0  0  0  0  0  0  0
    1.6320   -1.4607    0.0000 C   0  0  0  0  0  0  0  0  0  0  0  0
    1.6195    0.6606    0.0000 C   0  0  0  0  0  0  0  0  0  0  0  0
    1.2227    2.1072    0.0000 R   0  0  0  0  0  1  0  0  0  0  0  0
    3.0706    0.2809    0.0000 O   0  0  0  0  0  0  0  0  0  0  0  0
   -0.5018    0.6481    0.0000 C   0  0  0  0  0  0  0  0  0  0  0  0
   -0.1221    2.0993    0.0000 C   0  0  0  0  0  0  0  0  0  0  0  0
   -1.9484    0.2514    0.0000 O   0  0  0  0  0  0  0  0  0  0  0  0
   -3.0153    1.3058    0.0000 R   0  0  0  0  0  1  0  0  0  0  0  0
  1  2  1  0
  2  3  1  0
  2  4  1  0
  4  5  1  6
  4  6  1  0
  6  7  1  0
  6  8  2  0
  4  9  1  0
  9 10  1  6
  9 11  1  0
 11 12  1  0
M  ISO  4   1   1   3   3   7   2  12   4
M  END
>  <symbol>  (651) 
aMeThr

>  <m_abbr>  (651) 
aMeThr

>  <m_name>  (651) 
L-alpha-methylthreonine (S)

>  <m_type>  (651) 
aa

>  <m_subtype>  (651) 
modified

>  <m_Rgroups>  (651) 
[H],[OH],[H],[H]

>  <m_chem_types>  (651) 
1:backbone_n,2:backbone_c,3:backbone_n_mod,4:hydroxyl

>  <m_activation_policy>  (651) 
canonical-sites-v1

$$$$

     RDKit          2D

 16 16  0  0  0  0  0  0  0  0999 V2000
   -4.4249    0.3264    0.0000 R   0  0  0  0  0  1  0  0  0  0  0  0
   -3.0050    0.8101    0.0000 N   0  0  0  0  0  0  0  0  0  0  0  0
   -2.7140    2.2816    0.0000 R   0  0  0  0  0  1  0  0  0  0  0  0
   -1.8762   -0.1777    0.0000 C   0  0  0  0  0  0  0  0  0  0  0  0
   -2.8640   -1.3065    0.0000 C   0  0  0  0  0  0  0  0  0  0  0  0
   -0.8884    0.9511    0.0000 C   0  0  0  0  0  0  0  0  0  0  0  0
    0.5831    0.6600    0.0000 C   0  0  0  0  0  0  0  0  0  0  0  0
    1.0668   -0.7598    0.0000 C   0  0  0  0  0  0  0  0  0  0  0  0
    2.5383   -1.0509    0.0000 C   0  0  0  0  0  0  0  0  0  0  0  0
    3.5261    0.0779    0.0000 C   0  0  0  0  0  0  0  0  0  0  0  0
    4.9976   -0.2131    0.0000 F   0  0  0  0  0  0  0  0  0  0  0  0
    3.0424    1.4978    0.0000 C   0  0  0  0  0  0  0  0  0  0  0  0
    1.5709    1.7889    0.0000 C   0  0  0  0  0  0  0  0  0  0  0  0
   -0.7474   -1.1655    0.0000 C   0  0  0  0  0  0  0  0  0  0  0  0
    0.2333   -1.0830    0.0000 R   0  0  0  0  0  1  0  0  0  0  0  0
   -1.0384   -2.6370    0.0000 O   0  0  0  0  0  0  0  0  0  0  0  0
  1  2  1  0
  2  3  1  0
  2  4  1  0
  4  5  1  6
  4  6  1  0
  6  7  1  0
  7  8  1  0
  8  9  2  0
  9 10  1  0
 10 11  1  0
 10 12  2  0
 12 13  1  0
  4 14  1  0
 14 15  1  0
 14 16  2  0
 13  7  2  0
M  ISO  3   1   1   3   3  15   2
M  END
>  <symbol>  (652) 
aMePhe_4F

>  <m_abbr>  (652) 
aMePhe_4F

>  <m_name>  (652) 
L-alpha-methyl-4-F-Phe (S)

>  <m_type>  (652) 
aa

>  <m_subtype>  (652) 
modified

>  <m_Rgroups>  (652) 
[H],[OH],[H]

>  <m_chem_types>  (652) 
1:backbone_n,2:backbone_c,3:backbone_n_mod

>  <m_activation_policy>  (652) 
canonical-sites-v1

$$$$

     RDKit          2D

 16 16  0  0  0  0  0  0  0  0999 V2000
   -4.4249    0.3264    0.0000 R   0  0  0  0  0  1  0  0  0  0  0  0
   -3.0050    0.8101    0.0000 N   0  0  0  0  0  0  0  0  0  0  0  0
   -2.7140    2.2816    0.0000 R   0  0  0  0  0  1  0  0  0  0  0  0
   -1.8762   -0.1777    0.0000 C   0  0  0  0  0  0  0  0  0  0  0  0
   -2.8640   -1.3065    0.0000 C   0  0  0  0  0  0  0  0  0  0  0  0
   -0.8884    0.9511    0.0000 C   0  0  0  0  0  0  0  0  0  0  0  0
    0.5831    0.6600    0.0000 C   0  0  0  0  0  0  0  0  0  0  0  0
    1.0668   -0.7598    0.0000 C   0  0  0  0  0  0  0  0  0  0  0  0
    2.5383   -1.0509    0.0000 C   0  0  0  0  0  0  0  0  0  0  0  0
    3.5261    0.0779    0.0000 C   0  0  0  0  0  0  0  0  0  0  0  0
    4.9976   -0.2131    0.0000 Cl  0  0  0  0  0  0  0  0  0  0  0  0
    3.0424    1.4978    0.0000 C   0  0  0  0  0  0  0  0  0  0  0  0
    1.5709    1.7889    0.0000 C   0  0  0  0  0  0  0  0  0  0  0  0
   -0.7474   -1.1655    0.0000 C   0  0  0  0  0  0  0  0  0  0  0  0
    0.2333   -1.0830    0.0000 R   0  0  0  0  0  1  0  0  0  0  0  0
   -1.0384   -2.6370    0.0000 O   0  0  0  0  0  0  0  0  0  0  0  0
  1  2  1  0
  2  3  1  0
  2  4  1  0
  4  5  1  6
  4  6  1  0
  6  7  1  0
  7  8  1  0
  8  9  2  0
  9 10  1  0
 10 11  1  0
 10 12  2  0
 12 13  1  0
  4 14  1  0
 14 15  1  0
 14 16  2  0
 13  7  2  0
M  ISO  3   1   1   3   3  15   2
M  END
>  <symbol>  (653) 
aMePhe_4Cl

>  <m_abbr>  (653) 
aMePhe_4Cl

>  <m_name>  (653) 
L-alpha-methyl-4-Cl-Phe (S)

>  <m_type>  (653) 
aa

>  <m_subtype>  (653) 
modified

>  <m_Rgroups>  (653) 
[H],[OH],[H]

>  <m_chem_types>  (653) 
1:backbone_n,2:backbone_c,3:backbone_n_mod

>  <m_activation_policy>  (653) 
canonical-sites-v1

$$$$

     RDKit          2D

 17 17  0  0  0  0  0  0  0  0999 V2000
   -0.1697    1.1304    0.0000 R   0  0  0  0  0  1  0  0  0  0  0  0
   -1.1531    1.1688    0.0000 N   0  0  0  0  0  0  0  0  0  0  0  0
   -1.5100    2.6257    0.0000 R   0  0  0  0  0  1  0  0  0  0  0  0
   -2.2364    0.1312    0.0000 C   0  0  0  0  0  0  0  0  0  0  0  0
   -3.2740    1.2145    0.0000 C   0  0  0  0  0  0  0  0  0  0  0  0
   -1.1989   -0.9521    0.0000 C   0  0  0  0  0  0  0  0  0  0  0  0
    0.2580   -0.5952    0.0000 C   0  0  0  0  0  0  0  0  0  0  0  0
    0.6774    0.8450    0.0000 C   0  0  0  0  0  0  0  0  0  0  0  0
    2.1343    1.2019    0.0000 C   0  0  0  0  0  0  0  0  0  0  0  0
    3.1719    0.1186    0.0000 C   0  0  0  0  0  0  0  0  0  0  0  0
    4.6288    0.4755    0.0000 O   0  0  0  0  0  0  0  0  0  0  0  0
    5.6663   -0.6078    0.0000 C   0  0  0  0  0  0  0  0  0  0  0  0
    2.7525   -1.3216    0.0000 C   0  0  0  0  0  0  0  0  0  0  0  0
    1.2955   -1.6785    0.0000 C   0  0  0  0  0  0  0  0  0  0  0  0
   -3.3197   -0.9063    0.0000 C   0  0  0  0  0  0  0  0  0  0  0  0
   -4.7599   -0.4869    0.0000 R   0  0  0  0  0  1  0  0  0  0  0  0
   -2.9629   -2.3632    0.0000 O   0  0  0  0  0  0  0  0  0  0  0  0
  1  2  1  0
  2  3  1  0
  2  4  1  0
  4  5  1  6
  4  6  1  0
  6  7  1  0
  7  8  1  0
  8  9  2  0
  9 10  1  0
 10 11  1  0
 11 12  1  0
 10 13  2  0
 13 14  1  0
  4 15  1  0
 15 16  1  0
 15 17  2  0
 14  7  2  0
M  ISO  3   1   1   3   3  16   2
M  END
>  <symbol>  (654) 
aMePhe_4OMe

>  <m_abbr>  (654) 
aMePhe_4OMe

>  <m_name>  (654) 
L-alpha-methyl-4-OMe-Phe (S)

>  <m_type>  (654) 
aa

>  <m_subtype>  (654) 
modified

>  <m_Rgroups>  (654) 
[H],[OH],[H]

>  <m_chem_types>  (654) 
1:backbone_n,2:backbone_c,3:backbone_n_mod

>  <m_activation_policy>  (654) 
canonical-sites-v1

$$$$

     RDKit          2D

 15 15  0  0  0  0  0  0  0  0999 V2000
    0.5437   -1.1087    0.0000 R   0  0  0  0  0  1  0  0  0  0  0  0
   -0.4385   -1.1709    0.0000 N   0  0  0  0  0  0  0  0  0  0  0  0
   -0.7599   -2.6361    0.0000 R   0  0  0  0  0  1  0  0  0  0  0  0
   -1.5467   -0.1600    0.0000 C   0  0  0  0  0  0  0  0  0  0  0  0
   -2.5576   -1.2682    0.0000 C   0  0  0  0  0  0  0  0  0  0  0  0
   -0.5357    0.9482    0.0000 C   0  0  0  0  0  0  0  0  0  0  0  0
    0.9294    0.6267    0.0000 C   0  0  0  0  0  0  0  0  0  0  0  0
    1.3836   -0.8028    0.0000 C   0  0  0  0  0  0  0  0  0  0  0  0
    2.8488   -1.1242    0.0000 C   0  0  0  0  0  0  0  0  0  0  0  0
    3.8597   -0.0161    0.0000 C   0  0  0  0  0  0  0  0  0  0  0  0
    3.4055    1.4135    0.0000 C   0  0  0  0  0  0  0  0  0  0  0  0
    1.9403    1.7349    0.0000 C   0  0  0  0  0  0  0  0  0  0  0  0
   -2.6548    0.8509    0.0000 C   0  0  0  0  0  0  0  0  0  0  0  0
   -2.3334    2.3161    0.0000 R   0  0  0  0  0  1  0  0  0  0  0  0
   -4.0844    0.3967    0.0000 O   0  0  0  0  0  0  0  0  0  0  0  0
  1  2  1  0
  2  3  1  0
  2  4  1  0
  4  5  1  6
  4  6  1  0
  6  7  1  0
  7  8  2  0
  8  9  1  0
  9 10  2  0
 10 11  1  0
 11 12  2  0
  4 13  1  0
 13 14  1  0
 13 15  2  0
 12  7  1  0
M  ISO  3   1   1   3   3  14   2
M  END
>  <symbol>  (655) 
D_aMePhe

>  <m_abbr>  (655) 
D_aMePhe

>  <m_name>  (655) 
D-alpha-methylphenylalanine (R)

>  <m_type>  (655) 
aa

>  <m_subtype>  (655) 
modified

>  <m_Rgroups>  (655) 
[H],[OH],[H]

>  <m_chem_types>  (655) 
1:backbone_n,2:backbone_c,3:backbone_n_mod

>  <m_activation_policy>  (655) 
canonical-sites-v1

$$$$

     RDKit          2D

 12 11  0  0  0  0  0  0  0  0999 V2000
   -1.6546    2.1983    0.0000 R   0  0  0  0  0  1  0  0  0  0  0  0
   -1.8829    0.7157    0.0000 N   0  0  0  0  0  0  0  0  0  0  0  0
   -3.2810    0.1722    0.0000 R   0  0  0  0  0  1  0  0  0  0  0  0
   -0.7132   -0.2233    0.0000 C   0  0  0  0  0  0  0  0  0  0  0  0
   -1.6522   -1.3930    0.0000 C   0  0  0  0  0  0  0  0  0  0  0  0
    0.2258    0.9465    0.0000 C   0  0  0  0  0  0  0  0  0  0  0  0
    1.7083    0.7182    0.0000 C   0  0  0  0  0  0  0  0  0  0  0  0
    2.2833   -0.3522    0.0000 C   0  0  0  0  0  0  0  0  0  0  0  0
    2.6473    1.8879    0.0000 C   0  0  0  0  0  0  0  0  0  0  0  0
    0.4566   -1.1623    0.0000 C   0  0  0  0  0  0  0  0  0  0  0  0
    0.2282   -2.6448    0.0000 R   0  0  0  0  0  1  0  0  0  0  0  0
    1.6342   -0.8633    0.0000 O   0  0  0  0  0  0  0  0  0  0  0  0
  1  2  1  0
  2  3  1  0
  2  4  1  0
  4  5  1  1
  4  6  1  0
  6  7  1  0
  7  8  1  0
  7  9  1  0
  4 10  1  0
 10 11  1  0
 10 12  2  0
M  ISO  3   1   1   3   3  11   2
M  END
>  <symbol>  (656) 
D_aMeLeu

>  <m_abbr>  (656) 
D_aMeLeu

>  <m_name>  (656) 
D-alpha-methylleucine (R)

>  <m_type>  (656) 
aa

>  <m_subtype>  (656) 
modified

>  <m_Rgroups>  (656) 
[H],[OH],[H]

>  <m_chem_types>  (656) 
1:backbone_n,2:backbone_c,3:backbone_n_mod

>  <m_activation_policy>  (656) 
canonical-sites-v1

$$$$

     RDKit          2D

 11 10  0  0  0  0  0  0  0  0999 V2000
   -2.2500    0.8899    0.0000 R   0  0  0  0  0  1  0  0  0  0  0  0
   -1.5000   -0.4091    0.0000 N   0  0  0  0  0  0  0  0  0  0  0  0
   -2.2500   -1.7081    0.0000 R   0  0  0  0  0  1  0  0  0  0  0  0
   -0.0000   -0.4091    0.0000 C   0  0  0  0  0  0  0  0  0  0  0  0
   -0.0000   -1.9091    0.0000 C   0  0  0  0  0  0  0  0  0  0  0  0
    1.5000   -0.4091    0.0000 C   0  0  0  0  0  0  0  0  0  0  0  0
    2.2500    0.8899    0.0000 R   0  0  0  0  0  1  0  0  0  0  0  0
    2.2500   -1.7081    0.0000 O   0  0  0  0  0  0  0  0  0  0  0  0
    0.0000    1.0909    0.0000 C   0  0  0  0  0  0  0  0  0  0  0  0
    1.2990    1.8409    0.0000 C   0  0  0  0  0  0  0  0  0  0  0  0
   -1.2990    1.8409    0.0000 C   0  0  0  0  0  0  0  0  0  0  0  0
  1  2  1  0
  2  3  1  0
  2  4  1  0
  4  5  1  1
  4  6  1  0
  6  7  1  0
  6  8  2  0
  4  9  1  0
  9 10  1  0
  9 11  1  0
M  ISO  3   1   1   3   3   7   2
M  END
>  <symbol>  (657) 
D_aMeVal

>  <m_abbr>  (657) 
D_aMeVal

>  <m_name>  (657) 
D-alpha-methylvaline (R)

>  <m_type>  (657) 
aa

>  <m_subtype>  (657) 
modified

>  <m_Rgroups>  (657) 
[H],[OH],[H]

>  <m_chem_types>  (657) 
1:backbone_n,2:backbone_c,3:backbone_n_mod

>  <m_activation_policy>  (657) 
canonical-sites-v1

$$$$

     RDKit          2D

 12 11  0  0  0  0  0  0  0  0999 V2000
   -1.9405   -1.0935    0.0000 R   0  0  0  0  0  1  0  0  0  0  0  0
   -0.4893   -1.4732    0.0000 N   0  0  0  0  0  0  0  0  0  0  0  0
   -0.0926   -2.9197    0.0000 R   0  0  0  0  0  1  0  0  0  0  0  0
    0.5651   -0.4063    0.0000 C   0  0  0  0  0  0  0  0  0  0  0  0
    1.6320   -1.4607    0.0000 C   0  0  0  0  0  0  0  0  0  0  0  0
    1.6195    0.6606    0.0000 C   0  0  0  0  0  0  0  0  0  0  0  0
    1.2227    2.1072    0.0000 R   0  0  0  0  0  1  0  0  0  0  0  0
    3.0706    0.2809    0.0000 O   0  0  0  0  0  0  0  0  0  0  0  0
   -0.5018    0.6481    0.0000 C   0  0  0  0  0  0  0  0  0  0  0  0
   -0.1221    2.0993    0.0000 C   0  0  0  0  0  0  0  0  0  0  0  0
   -1.9484    0.2514    0.0000 C   0  0  0  0  0  0  0  0  0  0  0  0
   -3.0153    1.3058    0.0000 C   0  0  0  0  0  0  0  0  0  0  0  0
  1  2  1  0
  2  3  1  0
  2  4  1  0
  4  5  1  1
  4  6  1  0
  6  7  1  0
  6  8  2  0
  4  9  1  0
  9 10  1  6
  9 11  1  0
 11 12  1  0
M  ISO  3   1   1   3   3   7   2
M  END
>  <symbol>  (658) 
D_aMeIle

>  <m_abbr>  (658) 
D_aMeIle

>  <m_name>  (658) 
D-alpha-methylisoleucine (R)

>  <m_type>  (658) 
aa

>  <m_subtype>  (658) 
modified

>  <m_Rgroups>  (658) 
[H],[OH],[H]

>  <m_chem_types>  (658) 
1:backbone_n,2:backbone_c,3:backbone_n_mod

>  <m_activation_policy>  (658) 
canonical-sites-v1

$$$$

     RDKit          2D

 13 12  0  0  0  0  0  0  0  0999 V2000
   -1.0398    2.4415    0.0000 R   0  0  0  0  0  1  0  0  0  0  0  0
   -1.8741    1.1949    0.0000 N   0  0  0  0  0  0  0  0  0  0  0  0
   -3.3709    1.2942    0.0000 R   0  0  0  0  0  1  0  0  0  0  0  0
   -1.2118   -0.1509    0.0000 C   0  0  0  0  0  0  0  0  0  0  0  0
   -2.5576   -0.8133    0.0000 C   0  0  0  0  0  0  0  0  0  0  0  0
    0.1341    0.5115    0.0000 C   0  0  0  0  0  0  0  0  0  0  0  0
    1.3806   -0.3228    0.0000 C   0  0  0  0  0  0  0  0  0  0  0  0
    2.7264    0.3395    0.0000 C   0  0  0  0  0  0  0  0  0  0  0  0
    3.9730   -0.4948    0.0000 R   0  0  0  0  0  1  0  0  0  0  0  0
    2.8257    1.8363    0.0000 O   0  0  0  0  0  0  0  0  0  0  0  0
   -0.5494   -1.4967    0.0000 C   0  0  0  0  0  0  0  0  0  0  0  0
    0.9473   -1.5960    0.0000 R   0  0  0  0  0  1  0  0  0  0  0  0
   -1.3837   -2.7433    0.0000 O   0  0  0  0  0  0  0  0  0  0  0  0
  1  2  1  0
  2  3  1  0
  2  4  1  0
  4  5  1  1
  4  6  1  0
  6  7  1  0
  7  8  1  0
  8  9  1  0
  8 10  2  0
  4 11  1  0
 11 12  1  0
 11 13  2  0
M  ISO  4   1   1   3   3   9   4  12   2
M  END
>  <symbol>  (659) 
D_aMeGlu

>  <m_abbr>  (659) 
D_aMeGlu

>  <m_name>  (659) 
D-alpha-methylglutamic acid (R)

>  <m_type>  (659) 
aa

>  <m_subtype>  (659) 
modified

>  <m_Rgroups>  (659) 
[H],[OH],[H],[OH]

>  <m_chem_types>  (659) 
1:backbone_n,2:backbone_c,3:backbone_n_mod,4:carboxyl

>  <m_activation_policy>  (659) 
canonical-sites-v1

$$$$

     RDKit          2D

 12 11  0  0  0  0  0  0  0  0999 V2000
   -1.5970    2.2233    0.0000 R   0  0  0  0  0  1  0  0  0  0  0  0
   -1.8542    0.7455    0.0000 N   0  0  0  0  0  0  0  0  0  0  0  0
   -3.2625    0.2293    0.0000 R   0  0  0  0  0  1  0  0  0  0  0  0
   -0.7029   -0.2161    0.0000 C   0  0  0  0  0  0  0  0  0  0  0  0
   -1.6645   -1.3673    0.0000 C   0  0  0  0  0  0  0  0  0  0  0  0
    0.2587    0.9352    0.0000 C   0  0  0  0  0  0  0  0  0  0  0  0
    1.7365    0.6781    0.0000 C   0  0  0  0  0  0  0  0  0  0  0  0
    2.2351   -0.2951    0.0000 R   0  0  0  0  0  1  0  0  0  0  0  0
    2.6980    1.8293    0.0000 O   0  0  0  0  0  0  0  0  0  0  0  0
    0.4483   -1.1776    0.0000 C   0  0  0  0  0  0  0  0  0  0  0  0
    0.1912   -2.6554    0.0000 R   0  0  0  0  0  1  0  0  0  0  0  0
    1.5133   -0.9293    0.0000 O   0  0  0  0  0  0  0  0  0  0  0  0
  1  2  1  0
  2  3  1  0
  2  4  1  0
  4  5  1  1
  4  6  1  0
  6  7  1  0
  7  8  1  0
  7  9  2  0
  4 10  1  0
 10 11  1  0
 10 12  2  0
M  ISO  4   1   1   3   3   8   4  11   2
M  END
>  <symbol>  (660) 
D_aMeAsp

>  <m_abbr>  (660) 
D_aMeAsp

>  <m_name>  (660) 
D-alpha-methylaspartic acid (R)

>  <m_type>  (660) 
aa

>  <m_subtype>  (660) 
modified

>  <m_Rgroups>  (660) 
[H],[OH],[H],[OH]

>  <m_chem_types>  (660) 
1:backbone_n,2:backbone_c,3:backbone_n_mod,4:carboxyl

>  <m_activation_policy>  (660) 
canonical-sites-v1

$$$$

     RDKit          2D

 17 17  0  0  0  0  0  0  0  0999 V2000
   -0.1697    1.1304    0.0000 R   0  0  0  0  0  1  0  0  0  0  0  0
   -1.1531    1.1688    0.0000 N   0  0  0  0  0  0  0  0  0  0  0  0
   -1.5100    2.6257    0.0000 R   0  0  0  0  0  1  0  0  0  0  0  0
   -2.2364    0.1312    0.0000 C   0  0  0  0  0  0  0  0  0  0  0  0
   -3.2740    1.2145    0.0000 C   0  0  0  0  0  0  0  0  0  0  0  0
   -1.1989   -0.9521    0.0000 C   0  0  0  0  0  0  0  0  0  0  0  0
    0.2580   -0.5952    0.0000 C   0  0  0  0  0  0  0  0  0  0  0  0
    0.6774    0.8450    0.0000 C   0  0  0  0  0  0  0  0  0  0  0  0
    2.1343    1.2019    0.0000 C   0  0  0  0  0  0  0  0  0  0  0  0
    3.1719    0.1186    0.0000 C   0  0  0  0  0  0  0  0  0  0  0  0
    4.6288    0.4755    0.0000 O   0  0  0  0  0  0  0  0  0  0  0  0
    5.6663   -0.6078    0.0000 R   0  0  0  0  0  1  0  0  0  0  0  0
    2.7525   -1.3216    0.0000 C   0  0  0  0  0  0  0  0  0  0  0  0
    1.2955   -1.6785    0.0000 C   0  0  0  0  0  0  0  0  0  0  0  0
   -3.3197   -0.9063    0.0000 C   0  0  0  0  0  0  0  0  0  0  0  0
   -4.7599   -0.4869    0.0000 R   0  0  0  0  0  1  0  0  0  0  0  0
   -2.9629   -2.3632    0.0000 O   0  0  0  0  0  0  0  0  0  0  0  0
  1  2  1  0
  2  3  1  0
  2  4  1  0
  4  5  1  1
  4  6  1  0
  6  7  1  0
  7  8  1  0
  8  9  2  0
  9 10  1  0
 10 11  1  0
 11 12  1  0
 10 13  2  0
 13 14  1  0
  4 15  1  0
 15 16  1  0
 15 17  2  0
 14  7  2  0
M  ISO  4   1   1   3   3  12   4  16   2
M  END
>  <symbol>  (661) 
D_aMeTyr

>  <m_abbr>  (661) 
D_aMeTyr

>  <m_name>  (661) 
D-alpha-methyltyrosine (R)

>  <m_type>  (661) 
aa

>  <m_subtype>  (661) 
modified

>  <m_Rgroups>  (661) 
[H],[OH],[H],[H]

>  <m_chem_types>  (661) 
1:backbone_n,2:backbone_c,3:backbone_n_mod,4:aryl_phenol_o

>  <m_activation_policy>  (661) 
canonical-sites-v1

$$$$

     RDKit          2D

 15 14  0  0  0  0  0  0  0  0999 V2000
   -1.8599    2.4169    0.0000 R   0  0  0  0  0  1  0  0  0  0  0  0
   -2.5878    1.1053    0.0000 N   0  0  0  0  0  0  0  0  0  0  0  0
   -4.0876    1.0798    0.0000 R   0  0  0  0  0  1  0  0  0  0  0  0
   -1.8158   -0.1808    0.0000 C   0  0  0  0  0  0  0  0  0  0  0  0
   -3.1020   -0.9528    0.0000 C   0  0  0  0  0  0  0  0  0  0  0  0
   -0.5297    0.5911    0.0000 C   0  0  0  0  0  0  0  0  0  0  0  0
    0.7819   -0.1367    0.0000 C   0  0  0  0  0  0  0  0  0  0  0  0
    2.0680    0.6352    0.0000 C   0  0  0  0  0  0  0  0  0  0  0  0
    2.0425    2.1350    0.0000 O   0  0  0  0  0  0  0  0  0  0  0  0
    3.3796   -0.0927    0.0000 N   0  0  0  0  0  0  0  0  0  0  0  0
    4.6657    0.6793    0.0000 R   0  0  0  0  0  1  0  0  0  0  0  0
    3.4050   -1.5924    0.0000 R   0  0  0  0  0  1  0  0  0  0  0  0
   -1.0439   -1.4670    0.0000 C   0  0  0  0  0  0  0  0  0  0  0  0
    0.4559   -1.4415    0.0000 R   0  0  0  0  0  1  0  0  0  0  0  0
   -1.7717   -2.7785    0.0000 O   0  0  0  0  0  0  0  0  0  0  0  0
  1  2  1  0
  2  3  1  0
  2  4  1  0
  4  5  1  1
  4  6  1  0
  6  7  1  0
  7  8  1  0
  8  9  2  0
  8 10  1  0
 10 11  1  0
 10 12  1  0
  4 13  1  0
 13 14  1  0
 13 15  2  0
M  ISO  5   1   1   3   3  11   4  12   5  14   2
M  END
>  <symbol>  (662) 
D_aMeGln

>  <m_abbr>  (662) 
D_aMeGln

>  <m_name>  (662) 
D-alpha-methylglutamine (R)

>  <m_type>  (662) 
aa

>  <m_subtype>  (662) 
modified

>  <m_Rgroups>  (662) 
[H],[OH],[H],[H],[H]

>  <m_chem_types>  (662) 
1:backbone_n,2:backbone_c,3:backbone_n_mod,4:amide_nh,5:amide_nh

>  <m_activation_policy>  (662) 
canonical-sites-v1

$$$$

     RDKit          2D

 14 13  0  0  0  0  0  0  0  0999 V2000
   -1.2120    2.5044    0.0000 R   0  0  0  0  0  1  0  0  0  0  0  0
   -1.9967    1.2260    0.0000 N   0  0  0  0  0  0  0  0  0  0  0  0
   -3.4961    1.2663    0.0000 R   0  0  0  0  0  1  0  0  0  0  0  0
   -1.2819   -0.0928    0.0000 C   0  0  0  0  0  0  0  0  0  0  0  0
   -2.6006   -0.8076    0.0000 C   0  0  0  0  0  0  0  0  0  0  0  0
    0.0368    0.6220    0.0000 C   0  0  0  0  0  0  0  0  0  0  0  0
    1.3152   -0.1627    0.0000 C   0  0  0  0  0  0  0  0  0  0  0  0
    1.4193   -1.2512    0.0000 O   0  0  0  0  0  0  0  0  0  0  0  0
    2.6340    0.5521    0.0000 N   0  0  0  0  0  0  0  0  0  0  0  0
    3.9124   -0.2326    0.0000 R   0  0  0  0  0  1  0  0  0  0  0  0
    2.6743    2.0515    0.0000 R   0  0  0  0  0  1  0  0  0  0  0  0
   -0.5671   -1.4115    0.0000 C   0  0  0  0  0  0  0  0  0  0  0  0
   -1.3518   -2.6899    0.0000 R   0  0  0  0  0  1  0  0  0  0  0  0
    0.5142   -1.5740    0.0000 O   0  0  0  0  0  0  0  0  0  0  0  0
  1  2  1  0
  2  3  1  0
  2  4  1  0
  4  5  1  1
  4  6  1  0
  6  7  1  0
  7  8  2  0
  7  9  1  0
  9 10  1  0
  9 11  1  0
  4 12  1  0
 12 13  1  0
 12 14  2  0
M  ISO  5   1   1   3   3  10   4  11   5  13   2
M  END
>  <symbol>  (663) 
D_aMeAsn

>  <m_abbr>  (663) 
D_aMeAsn

>  <m_name>  (663) 
D-alpha-methylasparagine (R)

>  <m_type>  (663) 
aa

>  <m_subtype>  (663) 
modified

>  <m_Rgroups>  (663) 
[H],[OH],[H],[H],[H]

>  <m_chem_types>  (663) 
1:backbone_n,2:backbone_c,3:backbone_n_mod,4:amide_nh,5:amide_nh

>  <m_activation_policy>  (663) 
canonical-sites-v1

$$$$

     RDKit          2D

 11 10  0  0  0  0  0  0  0  0999 V2000
   -1.2617    2.2709    0.0000 R   0  0  0  0  0  1  0  0  0  0  0  0
   -1.6267    0.8160    0.0000 N   0  0  0  0  0  0  0  0  0  0  0  0
   -3.0691    0.4046    0.0000 R   0  0  0  0  0  1  0  0  0  0  0  0
   -0.5491   -0.2275    0.0000 C   0  0  0  0  0  0  0  0  0  0  0  0
   -1.5926   -1.3050    0.0000 C   0  0  0  0  0  0  0  0  0  0  0  0
    0.4944    0.8500    0.0000 C   0  0  0  0  0  0  0  0  0  0  0  0
    1.9493    0.4851    0.0000 O   0  0  0  0  0  0  0  0  0  0  0  0
    2.9928    1.5626    0.0000 R   0  0  0  0  0  1  0  0  0  0  0  0
    0.5284   -1.2710    0.0000 C   0  0  0  0  0  0  0  0  0  0  0  0
    1.9709   -0.8596    0.0000 R   0  0  0  0  0  1  0  0  0  0  0  0
    0.1634   -2.7260    0.0000 O   0  0  0  0  0  0  0  0  0  0  0  0
  1  2  1  0
  2  3  1  0
  2  4  1  0
  4  5  1  1
  4  6  1  0
  6  7  1  0
  7  8  1  0
  4  9  1  0
  9 10  1  0
  9 11  2  0
M  ISO  4   1   1   3   3   8   4  10   2
M  END
>  <symbol>  (664) 
D_aMeSer

>  <m_abbr>  (664) 
D_aMeSer

>  <m_name>  (664) 
D-alpha-methylserine (R)

>  <m_type>  (664) 
aa

>  <m_subtype>  (664) 
modified

>  <m_Rgroups>  (664) 
[H],[OH],[H],[H]

>  <m_chem_types>  (664) 
1:backbone_n,2:backbone_c,3:backbone_n_mod,4:hydroxyl

>  <m_activation_policy>  (664) 
canonical-sites-v1

$$$$

     RDKit          2D

 20 19  0  0  0  0  0  0  0  0999 V2000
   -6.4543   -1.5999    0.0000 R   0  0  0  0  0  1  0  0  0  0  0  0
   -4.9575   -1.6968    0.0000 N   0  0  0  0  0  0  0  0  0  0  0  0
   -4.2930   -3.0416    0.0000 R   0  0  0  0  0  1  0  0  0  0  0  0
   -4.1251   -0.4489    0.0000 C   0  0  0  0  0  0  0  0  0  0  0  0
   -2.6283   -0.5458    0.0000 C   0  0  0  0  0  0  0  0  0  0  0  0
   -1.7959    0.7021    0.0000 C   0  0  0  0  0  0  0  0  0  0  0  0
   -0.2990    0.6051    0.0000 C   0  0  0  0  0  0  0  0  0  0  0  0
    0.5333    1.8530    0.0000 C   0  0  0  0  0  0  0  0  0  0  0  0
    2.0302    1.7561    0.0000 N   0  0  0  0  0  0  0  0  0  0  0  0
    2.8625    3.0040    0.0000 R   0  0  0  0  0  1  0  0  0  0  0  0
    2.6947    0.4113    0.0000 C   0  0  0  0  0  0  0  0  0  0  0  0
    1.8623   -0.8365    0.0000 O   0  0  0  0  0  0  0  0  0  0  0  0
    4.1916    0.3144    0.0000 O   0  0  0  0  0  0  0  0  0  0  0  0
    4.8561   -1.0303    0.0000 C   0  0  0  0  0  0  0  0  0  0  0  0
    6.3529   -1.1273    0.0000 C   0  0  0  0  0  0  0  0  0  0  0  0
    7.0175   -2.4720    0.0000 R   0  0  0  0  0  1  0  0  0  0  0  0
    7.1853    0.1206    0.0000 C   0  0  0  0  0  0  0  0  0  0  0  0
   -4.7896    0.8959    0.0000 C   0  0  0  0  0  0  0  0  0  0  0  0
   -3.9573    2.1437    0.0000 R   0  0  0  0  0  1  0  0  0  0  0  0
   -6.2865    0.9928    0.0000 O   0  0  0  0  0  0  0  0  0  0  0  0
  1  2  1  0
  2  3  1  0
  2  4  1  0
  4  5  1  6
  5  6  1  0
  6  7  1  0
  7  8  1  0
  8  9  1  0
  9 10  1  0
  9 11  1  0
 11 12  2  0
 11 13  1  0
 13 14  1  0
 14 15  1  0
 15 16  1  0
 15 17  2  0
  4 18  1  0
 18 19  1  0
 18 20  2  0
M  ISO  5   1   1   3   3  10   5  16   4  19   2
M  END
>  <symbol>  (665) 
Lys_Alloc

>  <m_abbr>  (665) 
Lys_Alloc

>  <m_name>  (665) 
N-epsilon-Alloc-L-lysine

>  <m_type>  (665) 
aa

>  <m_subtype>  (665) 
modified

>  <m_Rgroups>  (665) 
[H],[OH],[H],[H],[H]

>  <m_chem_types>  (665) 
1:backbone_n,2:backbone_c,3:backbone_n_mod,4:terminal_alkene,5:carbamate_nh

>  <m_activation_policy>  (665) 
canonical-sites-v1

$$$$

     RDKit          2D

 19 18  0  0  0  0  0  0  0  0999 V2000
   -5.8387    1.1749    0.0000 R   0  0  0  0  0  1  0  0  0  0  0  0
   -4.9572   -0.0388    0.0000 N   0  0  0  0  0  0  0  0  0  0  0  0
   -5.5676   -1.4090    0.0000 R   0  0  0  0  0  1  0  0  0  0  0  0
   -3.4654    0.1177    0.0000 C   0  0  0  0  0  0  0  0  0  0  0  0
   -2.5840   -1.0960    0.0000 C   0  0  0  0  0  0  0  0  0  0  0  0
   -1.0921   -0.9395    0.0000 C   0  0  0  0  0  0  0  0  0  0  0  0
   -0.2107   -2.1532    0.0000 C   0  0  0  0  0  0  0  0  0  0  0  0
    1.2811   -1.9967    0.0000 N   0  0  0  0  0  0  0  0  0  0  0  0
    2.1625   -3.2104    0.0000 R   0  0  0  0  0  1  0  0  0  0  0  0
    1.8915   -0.6265    0.0000 C   0  0  0  0  0  0  0  0  0  0  0  0
    1.0100    0.5872    0.0000 O   0  0  0  0  0  0  0  0  0  0  0  0
    3.3833   -0.4700    0.0000 O   0  0  0  0  0  0  0  0  0  0  0  0
    3.9937    0.9002    0.0000 C   0  0  0  0  0  0  0  0  0  0  0  0
    5.4855    1.0567    0.0000 C   0  0  0  0  0  0  0  0  0  0  0  0
    6.0959    2.4269    0.0000 R   0  0  0  0  0  1  0  0  0  0  0  0
    6.3669   -0.1570    0.0000 C   0  0  0  0  0  0  0  0  0  0  0  0
   -2.8550    1.4879    0.0000 C   0  0  0  0  0  0  0  0  0  0  0  0
   -1.3632    1.6444    0.0000 R   0  0  0  0  0  1  0  0  0  0  0  0
   -3.7365    2.7016    0.0000 O   0  0  0  0  0  0  0  0  0  0  0  0
  1  2  1  0
  2  3  1  0
  2  4  1  0
  4  5  1  6
  5  6  1  0
  6  7  1  0
  7  8  1  0
  8  9  1  0
  8 10  1  0
 10 11  2  0
 10 12  1  0
 12 13  1  0
 13 14  1  0
 14 15  1  0
 14 16  2  0
  4 17  1  0
 17 18  1  0
 17 19  2  0
M  ISO  5   1   1   3   3   9   5  15   4  18   2
M  END
>  <symbol>  (666) 
Orn_Alloc

>  <m_abbr>  (666) 
Orn_Alloc

>  <m_name>  (666) 
N-delta-Alloc-L-ornithine

>  <m_type>  (666) 
aa

>  <m_subtype>  (666) 
modified

>  <m_Rgroups>  (666) 
[H],[OH],[H],[H],[H]

>  <m_chem_types>  (666) 
1:backbone_n,2:backbone_c,3:backbone_n_mod,4:terminal_alkene,5:carbamate_nh

>  <m_activation_policy>  (666) 
canonical-sites-v1

$$$$

     RDKit          2D

 18 17  0  0  0  0  0  0  0  0999 V2000
   -5.0237   -1.8425    0.0000 R   0  0  0  0  0  1  0  0  0  0  0  0
   -3.5345   -1.6626    0.0000 N   0  0  0  0  0  0  0  0  0  0  0  0
   -2.6342   -2.8624    0.0000 R   0  0  0  0  0  1  0  0  0  0  0  0
   -2.9456   -0.2830    0.0000 C   0  0  0  0  0  0  0  0  0  0  0  0
   -1.4565   -0.1032    0.0000 C   0  0  0  0  0  0  0  0  0  0  0  0
   -0.8676    1.2764    0.0000 C   0  0  0  0  0  0  0  0  0  0  0  0
    0.6216    1.4562    0.0000 N   0  0  0  0  0  0  0  0  0  0  0  0
    1.2104    2.8358    0.0000 R   0  0  0  0  0  1  0  0  0  0  0  0
    1.5219    0.2565    0.0000 C   0  0  0  0  0  0  0  0  0  0  0  0
    0.9331   -1.1231    0.0000 O   0  0  0  0  0  0  0  0  0  0  0  0
    3.0111    0.4363    0.0000 O   0  0  0  0  0  0  0  0  0  0  0  0
    3.9114   -0.7634    0.0000 C   0  0  0  0  0  0  0  0  0  0  0  0
    5.4006   -0.5836    0.0000 C   0  0  0  0  0  0  0  0  0  0  0  0
    6.3009   -1.7833    0.0000 R   0  0  0  0  0  1  0  0  0  0  0  0
    5.9894    0.7960    0.0000 C   0  0  0  0  0  0  0  0  0  0  0  0
   -3.8460    0.9167    0.0000 C   0  0  0  0  0  0  0  0  0  0  0  0
   -3.2571    2.2963    0.0000 R   0  0  0  0  0  1  0  0  0  0  0  0
   -5.3352    0.7369    0.0000 O   0  0  0  0  0  0  0  0  0  0  0  0
  1  2  1  0
  2  3  1  0
  2  4  1  0
  4  5  1  6
  5  6  1  0
  6  7  1  0
  7  8  1  0
  7  9  1  0
  9 10  2  0
  9 11  1  0
 11 12  1  0
 12 13  1  0
 13 14  1  0
 13 15  2  0
  4 16  1  0
 16 17  1  0
 16 18  2  0
M  ISO  5   1   1   3   3   8   5  14   4  17   2
M  END
>  <symbol>  (667) 
Dab_Alloc

>  <m_abbr>  (667) 
Dab_Alloc

>  <m_name>  (667) 
N-gamma-Alloc-L-Dab

>  <m_type>  (667) 
aa

>  <m_subtype>  (667) 
modified

>  <m_Rgroups>  (667) 
[H],[OH],[H],[H],[H]

>  <m_chem_types>  (667) 
1:backbone_n,2:backbone_c,3:backbone_n_mod,4:terminal_alkene,5:carbamate_nh

>  <m_activation_policy>  (667) 
canonical-sites-v1

$$$$

     RDKit          2D

 17 16  0  0  0  0  0  0  0  0999 V2000
   -4.0543   -2.0537    0.0000 R   0  0  0  0  0  1  0  0  0  0  0  0
   -2.7277   -1.3535    0.0000 N   0  0  0  0  0  0  0  0  0  0  0  0
   -1.4581   -2.1522    0.0000 R   0  0  0  0  0  1  0  0  0  0  0  0
   -2.6709    0.1455    0.0000 C   0  0  0  0  0  0  0  0  0  0  0  0
   -1.3444    0.8457    0.0000 C   0  0  0  0  0  0  0  0  0  0  0  0
   -0.0747    0.0470    0.0000 N   0  0  0  0  0  0  0  0  0  0  0  0
   -0.1315   -1.4519    0.0000 R   0  0  0  0  0  1  0  0  0  0  0  0
    1.2518    0.7472    0.0000 C   0  0  0  0  0  0  0  0  0  0  0  0
    1.3087    2.2461    0.0000 O   0  0  0  0  0  0  0  0  0  0  0  0
    2.5215   -0.0515    0.0000 O   0  0  0  0  0  0  0  0  0  0  0  0
    3.8481    0.6487    0.0000 C   0  0  0  0  0  0  0  0  0  0  0  0
    5.1177   -0.1500    0.0000 C   0  0  0  0  0  0  0  0  0  0  0  0
    6.4443    0.5503    0.0000 R   0  0  0  0  0  1  0  0  0  0  0  0
    5.0609   -1.6489    0.0000 C   0  0  0  0  0  0  0  0  0  0  0  0
   -3.9406    0.9442    0.0000 C   0  0  0  0  0  0  0  0  0  0  0  0
   -5.2671    0.2439    0.0000 R   0  0  0  0  0  1  0  0  0  0  0  0
   -3.8837    2.4431    0.0000 O   0  0  0  0  0  0  0  0  0  0  0  0
  1  2  1  0
  2  3  1  0
  2  4  1  0
  4  5  1  6
  5  6  1  0
  6  7  1  0
  6  8  1  0
  8  9  2  0
  8 10  1  0
 10 11  1  0
 11 12  1  0
 12 13  1  0
 12 14  2  0
  4 15  1  0
 15 16  1  0
 15 17  2  0
M  ISO  5   1   1   3   3   7   5  13   4  16   2
M  END
>  <symbol>  (668) 
Dap_Alloc

>  <m_abbr>  (668) 
Dap_Alloc

>  <m_name>  (668) 
N-beta-Alloc-L-Dap

>  <m_type>  (668) 
aa

>  <m_subtype>  (668) 
modified

>  <m_Rgroups>  (668) 
[H],[OH],[H],[H],[H]

>  <m_chem_types>  (668) 
1:backbone_n,2:backbone_c,3:backbone_n_mod,4:terminal_alkene,5:carbamate_nh

>  <m_activation_policy>  (668) 
canonical-sites-v1

$$$$

     RDKit          2D

 16 15  0  0  0  0  0  0  0  0999 V2000
   -5.2755   -0.1474    0.0000 R   0  0  0  0  0  1  0  0  0  0  0  0
   -3.9497   -0.8490    0.0000 N   0  0  0  0  0  0  0  0  0  0  0  0
   -3.8945   -2.3480    0.0000 R   0  0  0  0  0  1  0  0  0  0  0  0
   -2.6792   -0.0517    0.0000 C   0  0  0  0  0  0  0  0  0  0  0  0
   -1.3534   -0.7534    0.0000 C   0  0  0  0  0  0  0  0  0  0  0  0
   -0.0829    0.0439    0.0000 C   0  0  0  0  0  0  0  0  0  0  0  0
    1.2429   -0.6578    0.0000 C   0  0  0  0  0  0  0  0  0  0  0  0
    1.2981   -2.1568    0.0000 O   0  0  0  0  0  0  0  0  0  0  0  0
    2.5135    0.1395    0.0000 O   0  0  0  0  0  0  0  0  0  0  0  0
    3.8392   -0.5622    0.0000 C   0  0  0  0  0  0  0  0  0  0  0  0
    5.1098    0.2351    0.0000 C   0  0  0  0  0  0  0  0  0  0  0  0
    6.4355   -0.4666    0.0000 R   0  0  0  0  0  1  0  0  0  0  0  0
    5.0546    1.7340    0.0000 C   0  0  0  0  0  0  0  0  0  0  0  0
   -2.7344    1.4472    0.0000 C   0  0  0  0  0  0  0  0  0  0  0  0
   -1.4638    2.2445    0.0000 R   0  0  0  0  0  1  0  0  0  0  0  0
   -4.0601    2.1489    0.0000 O   0  0  0  0  0  0  0  0  0  0  0  0
  1  2  1  0
  2  3  1  0
  2  4  1  0
  4  5  1  6
  5  6  1  0
  6  7  1  0
  7  8  2  0
  7  9  1  0
  9 10  1  0
 10 11  1  0
 11 12  1  0
 11 13  2  0
  4 14  1  0
 14 15  1  0
 14 16  2  0
M  ISO  4   1   1   3   3  12   4  15   2
M  END
>  <symbol>  (669) 
Glu_OAll

>  <m_abbr>  (669) 
Glu_OAll

>  <m_name>  (669) 
L-Glu gamma-allyl ester

>  <m_type>  (669) 
aa

>  <m_subtype>  (669) 
modified

>  <m_Rgroups>  (669) 
[H],[OH],[H],[H]

>  <m_chem_types>  (669) 
1:backbone_n,2:backbone_c,3:backbone_n_mod,4:terminal_alkene

>  <m_activation_policy>  (669) 
canonical-sites-v1

$$$$

     RDKit          2D

 15 14  0  0  0  0  0  0  0  0999 V2000
   -4.6412   -0.5736    0.0000 R   0  0  0  0  0  1  0  0  0  0  0  0
   -3.2600   -1.1586    0.0000 N   0  0  0  0  0  0  0  0  0  0  0  0
   -3.0760   -2.6473    0.0000 R   0  0  0  0  0  1  0  0  0  0  0  0
   -2.0628   -0.2549    0.0000 C   0  0  0  0  0  0  0  0  0  0  0  0
   -0.6815   -0.8399    0.0000 C   0  0  0  0  0  0  0  0  0  0  0  0
    0.5157    0.0637    0.0000 C   0  0  0  0  0  0  0  0  0  0  0  0
    0.3317    1.5524    0.0000 O   0  0  0  0  0  0  0  0  0  0  0  0
    1.8969   -0.5213    0.0000 O   0  0  0  0  0  0  0  0  0  0  0  0
    3.0941    0.3824    0.0000 C   0  0  0  0  0  0  0  0  0  0  0  0
    4.4754   -0.2026    0.0000 C   0  0  0  0  0  0  0  0  0  0  0  0
    5.6726    0.7011    0.0000 R   0  0  0  0  0  1  0  0  0  0  0  0
    4.6594   -1.6913    0.0000 C   0  0  0  0  0  0  0  0  0  0  0  0
   -2.2468    1.2337    0.0000 C   0  0  0  0  0  0  0  0  0  0  0  0
   -1.0495    2.1374    0.0000 R   0  0  0  0  0  1  0  0  0  0  0  0
   -3.6280    1.8187    0.0000 O   0  0  0  0  0  0  0  0  0  0  0  0
  1  2  1  0
  2  3  1  0
  2  4  1  0
  4  5  1  6
  5  6  1  0
  6  7  2  0
  6  8  1  0
  8  9  1  0
  9 10  1  0
 10 11  1  0
 10 12  2  0
  4 13  1  0
 13 14  1  0
 13 15  2  0
M  ISO  4   1   1   3   3  11   4  14   2
M  END
>  <symbol>  (670) 
Asp_OAll

>  <m_abbr>  (670) 
Asp_OAll

>  <m_name>  (670) 
L-Asp beta-allyl ester

>  <m_type>  (670) 
aa

>  <m_subtype>  (670) 
modified

>  <m_Rgroups>  (670) 
[H],[OH],[H],[H]

>  <m_chem_types>  (670) 
1:backbone_n,2:backbone_c,3:backbone_n_mod,4:terminal_alkene

>  <m_activation_policy>  (670) 
canonical-sites-v1

$$$$

     RDKit          2D

 13 12  0  0  0  0  0  0  0  0999 V2000
   -4.0960   -0.1954    0.0000 R   0  0  0  0  0  1  0  0  0  0  0  0
   -2.7929   -0.9383    0.0000 N   0  0  0  0  0  0  0  0  0  0  0  0
   -2.7847   -2.4383    0.0000 R   0  0  0  0  0  1  0  0  0  0  0  0
   -1.4979   -0.1812    0.0000 C   0  0  0  0  0  0  0  0  0  0  0  0
   -0.1948   -0.9242    0.0000 C   0  0  0  0  0  0  0  0  0  0  0  0
    1.1001   -0.1671    0.0000 O   0  0  0  0  0  0  0  0  0  0  0  0
    2.4032   -0.9100    0.0000 C   0  0  0  0  0  0  0  0  0  0  0  0
    3.6982   -0.1529    0.0000 C   0  0  0  0  0  0  0  0  0  0  0  0
    5.0013   -0.8959    0.0000 R   0  0  0  0  0  1  0  0  0  0  0  0
    3.6900    1.3470    0.0000 C   0  0  0  0  0  0  0  0  0  0  0  0
   -1.5061    1.3187    0.0000 C   0  0  0  0  0  0  0  0  0  0  0  0
   -0.2112    2.0758    0.0000 R   0  0  0  0  0  1  0  0  0  0  0  0
   -2.8092    2.0617    0.0000 O   0  0  0  0  0  0  0  0  0  0  0  0
  1  2  1  0
  2  3  1  0
  2  4  1  0
  4  5  1  6
  5  6  1  0
  6  7  1  0
  7  8  1  0
  8  9  1  0
  8 10  2  0
  4 11  1  0
 11 12  1  0
 11 13  2  0
M  ISO  4   1   1   3   3   9   4  12   2
M  END
>  <symbol>  (671) 
Ser_All

>  <m_abbr>  (671) 
Ser_All

>  <m_name>  (671) 
L-O-allylserine

>  <m_type>  (671) 
aa

>  <m_subtype>  (671) 
modified

>  <m_Rgroups>  (671) 
[H],[OH],[H],[H]

>  <m_chem_types>  (671) 
1:backbone_n,2:backbone_c,3:backbone_n_mod,4:terminal_alkene

>  <m_activation_policy>  (671) 
canonical-sites-v1

$$$$

     RDKit          2D

 14 13  0  0  0  0  0  0  0  0999 V2000
   -2.7837   -2.2500    0.0000 R   0  0  0  0  0  1  0  0  0  0  0  0
   -1.4846   -1.5000    0.0000 N   0  0  0  0  0  0  0  0  0  0  0  0
   -0.1856   -2.2500    0.0000 R   0  0  0  0  0  1  0  0  0  0  0  0
   -1.4846   -0.0000    0.0000 C   0  0  0  0  0  0  0  0  0  0  0  0
   -2.7837    0.7500    0.0000 C   0  0  0  0  0  0  0  0  0  0  0  0
   -2.7837    2.2500    0.0000 R   0  0  0  0  0  1  0  0  0  0  0  0
   -4.0827   -0.0000    0.0000 O   0  0  0  0  0  0  0  0  0  0  0  0
   -0.1856    0.7500    0.0000 C   0  0  0  0  0  0  0  0  0  0  0  0
   -0.1856    2.2500    0.0000 C   0  0  0  0  0  0  0  0  0  0  0  0
    1.1135    0.0000    0.0000 O   0  0  0  0  0  0  0  0  0  0  0  0
    2.4125    0.7500    0.0000 C   0  0  0  0  0  0  0  0  0  0  0  0
    3.7115    0.0000    0.0000 C   0  0  0  0  0  0  0  0  0  0  0  0
    5.0106    0.7500    0.0000 R   0  0  0  0  0  1  0  0  0  0  0  0
    3.7115   -1.5000    0.0000 C   0  0  0  0  0  0  0  0  0  0  0  0
  1  2  1  0
  2  3  1  0
  4  2  1  6
  4  5  1  0
  5  6  1  0
  5  7  2  0
  4  8  1  0
  8  9  1  1
  8 10  1  0
 10 11  1  0
 11 12  1  0
 12 13  1  0
 12 14  2  0
M  ISO  4   1   1   3   3   6   2  13   4
M  END
>  <symbol>  (672) 
Thr_All

>  <m_abbr>  (672) 
Thr_All

>  <m_name>  (672) 
L-O-allylthreonine

>  <m_type>  (672) 
aa

>  <m_subtype>  (672) 
modified

>  <m_Rgroups>  (672) 
[H],[OH],[H],[H]

>  <m_chem_types>  (672) 
1:backbone_n,2:backbone_c,3:backbone_n_mod,4:terminal_alkene

>  <m_activation_policy>  (672) 
canonical-sites-v1

$$$$

     RDKit          2D

 19 19  0  0  0  0  0  0  0  0999 V2000
   -4.1838    2.2752    0.0000 R   0  0  0  0  0  1  0  0  0  0  0  0
   -3.0808    1.2587    0.0000 N   0  0  0  0  0  0  0  0  0  0  0  0
   -1.6489    1.7056    0.0000 R   0  0  0  0  0  1  0  0  0  0  0  0
   -3.4096   -0.2049    0.0000 C   0  0  0  0  0  0  0  0  0  0  0  0
   -2.3066   -1.2214    0.0000 C   0  0  0  0  0  0  0  0  0  0  0  0
   -0.8748   -0.7744    0.0000 C   0  0  0  0  0  0  0  0  0  0  0  0
   -0.5459    0.6891    0.0000 C   0  0  0  0  0  0  0  0  0  0  0  0
    0.8859    1.1360    0.0000 C   0  0  0  0  0  0  0  0  0  0  0  0
    1.9890    0.1195    0.0000 C   0  0  0  0  0  0  0  0  0  0  0  0
    3.4208    0.5665    0.0000 O   0  0  0  0  0  0  0  0  0  0  0  0
    4.5238   -0.4501    0.0000 C   0  0  0  0  0  0  0  0  0  0  0  0
    5.9557   -0.0031    0.0000 C   0  0  0  0  0  0  0  0  0  0  0  0
    7.0587   -1.0197    0.0000 R   0  0  0  0  0  1  0  0  0  0  0  0
    6.2845    1.4604    0.0000 C   0  0  0  0  0  0  0  0  0  0  0  0
    1.6601   -1.3440    0.0000 C   0  0  0  0  0  0  0  0  0  0  0  0
    0.2282   -1.7910    0.0000 C   0  0  0  0  0  0  0  0  0  0  0  0
   -4.8415   -0.6518    0.0000 C   0  0  0  0  0  0  0  0  0  0  0  0
   -5.9445    0.3647    0.0000 R   0  0  0  0  0  1  0  0  0  0  0  0
   -5.1703   -2.1153    0.0000 O   0  0  0  0  0  0  0  0  0  0  0  0
  1  2  1  0
  2  3  1  0
  2  4  1  0
  4  5  1  1
  5  6  1  0
  6  7  1  0
  7  8  2  0
  8  9  1  0
  9 10  1  0
 10 11  1  0
 11 12  1  0
 12 13  1  0
 12 14  2  0
  9 15  2  0
 15 16  1  0
  4 17  1  0
 17 18  1  0
 17 19  2  0
 16  6  2  0
M  ISO  4   1   1   3   3  13   4  18   2
M  END
>  <symbol>  (673) 
Tyr_All

>  <m_abbr>  (673) 
Tyr_All

>  <m_name>  (673) 
L-O-allyltyrosine

>  <m_type>  (673) 
aa

>  <m_subtype>  (673) 
modified

>  <m_Rgroups>  (673) 
[H],[OH],[H],[H]

>  <m_chem_types>  (673) 
1:backbone_n,2:backbone_c,3:backbone_n_mod,4:terminal_alkene

>  <m_activation_policy>  (673) 
canonical-sites-v1

$$$$

     RDKit          2D

 13 12  0  0  0  0  0  0  0  0999 V2000
   -2.7847    2.4383    0.0000 R   0  0  0  0  0  1  0  0  0  0  0  0
   -2.7929    0.9383    0.0000 N   0  0  0  0  0  0  0  0  0  0  0  0
   -4.0960    0.1954    0.0000 R   0  0  0  0  0  1  0  0  0  0  0  0
   -1.4979    0.1812    0.0000 C   0  0  0  0  0  0  0  0  0  0  0  0
   -0.1948    0.9242    0.0000 C   0  0  0  0  0  0  0  0  0  0  0  0
    1.1001    0.1671    0.0000 S   0  0  0  0  0  0  0  0  0  0  0  0
    2.4032    0.9100    0.0000 C   0  0  0  0  0  0  0  0  0  0  0  0
    3.6982    0.1529    0.0000 C   0  0  0  0  0  0  0  0  0  0  0  0
    5.0013    0.8959    0.0000 R   0  0  0  0  0  1  0  0  0  0  0  0
    3.6900   -1.3470    0.0000 C   0  0  0  0  0  0  0  0  0  0  0  0
   -1.5061   -1.3187    0.0000 C   0  0  0  0  0  0  0  0  0  0  0  0
   -0.2112   -2.0758    0.0000 R   0  0  0  0  0  1  0  0  0  0  0  0
   -2.8092   -2.0617    0.0000 O   0  0  0  0  0  0  0  0  0  0  0  0
  1  2  1  0
  2  3  1  0
  2  4  1  0
  4  5  1  1
  5  6  1  0
  6  7  1  0
  7  8  1  0
  8  9  1  0
  8 10  2  0
  4 11  1  0
 11 12  1  0
 11 13  2  0
M  ISO  4   1   1   3   3   9   4  12   2
M  END
>  <symbol>  (674) 
Cys_All

>  <m_abbr>  (674) 
Cys_All

>  <m_name>  (674) 
L-S-allylcysteine

>  <m_type>  (674) 
aa

>  <m_subtype>  (674) 
modified

>  <m_Rgroups>  (674) 
[H],[OH],[H],[H]

>  <m_chem_types>  (674) 
1:backbone_n,2:backbone_c,3:backbone_n_mod,4:terminal_alkene

>  <m_activation_policy>  (674) 
canonical-sites-v1

$$$$

     RDKit          2D

 32 34  0  0  0  0  0  0  0  0999 V2000
    7.2478   -1.9235    0.0000 R   0  0  0  0  0  1  0  0  0  0  0  0
    5.9562   -1.1607    0.0000 N   0  0  0  0  0  0  0  0  0  0  0  0
    4.6498   -1.8977    0.0000 R   0  0  0  0  0  1  0  0  0  0  0  0
    5.9711    0.3393    0.0000 C   0  0  0  0  0  0  0  0  0  0  0  0
    4.6796    1.1021    0.0000 C   0  0  0  0  0  0  0  0  0  0  0  0
    3.3732    0.3650    0.0000 C   0  0  0  0  0  0  0  0  0  0  0  0
    2.0816    1.1279    0.0000 C   0  0  0  0  0  0  0  0  0  0  0  0
    0.7752    0.3908    0.0000 C   0  0  0  0  0  0  0  0  0  0  0  0
   -0.5163    1.1536    0.0000 N   0  0  0  0  0  0  0  0  0  0  0  0
   -1.8227    0.4165    0.0000 C   0  0  0  0  0  0  0  0  0  0  0  0
   -2.5598    1.7229    0.0000 C   0  0  0  0  0  0  0  0  0  0  0  0
   -1.7970    3.0145    0.0000 C   0  0  0  0  0  0  0  0  0  0  0  0
   -2.5341    4.3209    0.0000 C   0  0  0  0  0  0  0  0  0  0  0  0
   -4.0340    4.3358    0.0000 C   0  0  0  0  0  0  0  0  0  0  0  0
   -4.7968    3.0442    0.0000 C   0  0  0  0  0  0  0  0  0  0  0  0
   -4.0597    1.7378    0.0000 C   0  0  0  0  0  0  0  0  0  0  0  0
   -1.0856   -0.8899    0.0000 C   0  0  0  0  0  0  0  0  0  0  0  0
   -1.8485   -2.1814    0.0000 C   0  0  0  0  0  0  0  0  0  0  0  0
   -1.1114   -3.4878    0.0000 C   0  0  0  0  0  0  0  0  0  0  0  0
    0.3885   -3.5027    0.0000 C   0  0  0  0  0  0  0  0  0  0  0  0
    1.1514   -2.2112    0.0000 C   0  0  0  0  0  0  0  0  0  0  0  0
    0.4143   -0.9048    0.0000 C   0  0  0  0  0  0  0  0  0  0  0  0
   -3.1291   -0.3206    0.0000 C   0  0  0  0  0  0  0  0  0  0  0  0
   -4.4207    0.4423    0.0000 C   0  0  0  0  0  0  0  0  0  0  0  0
   -5.7271   -0.2948    0.0000 C   0  0  0  0  0  0  0  0  0  0  0  0
   -5.7420   -1.7947    0.0000 C   0  0  0  0  0  0  0  0  0  0  0  0
   -7.0484   -2.5318    0.0000 C   0  0  0  0  0  0  0  0  0  0  0  0
   -4.4504   -2.5576    0.0000 C   0  0  0  0  0  0  0  0  0  0  0  0
   -3.1440   -1.8205    0.0000 C   0  0  0  0  0  0  0  0  0  0  0  0
    7.2775    1.0764    0.0000 C   0  0  0  0  0  0  0  0  0  0  0  0
    8.5691    0.3135    0.0000 R   0  0  0  0  0  1  0  0  0  0  0  0
    7.2924    2.5763    0.0000 O   0  0  0  0  0  0  0  0  0  0  0  0
  1  2  1  0
  2  3  1  0
  2  4  1  0
  4  5  1  1
  5  6  1  0
  6  7  1  0
  7  8  1  0
  8  9  1  0
  9 10  1  0
 10 11  1  0
 11 12  4  0
 12 13  4  0
 13 14  4  0
 14 15  4  0
 15 16  4  0
 10 17  1  0
 17 18  4  0
 18 19  4  0
 19 20  4  0
 20 21  4  0
 21 22  4  0
 10 23  1  0
 23 24  4  0
 24 25  4  0
 25 26  4  0
 26 27  1  0
 26 28  4  0
 28 29  4  0
  4 30  1  0
 30 31  1  0
 30 32  2  0
 16 11  4  0
 22 17  4  0
 29 23  4  0
M  ISO  3   1   1   3   3  31   2
M  END
>  <symbol>
Lys_Mtt

>  <m_abbr>
Lys_Mtt

>  <m_name>
N-epsilon-Mtt-L-lysine

>  <m_type>
aa

>  <m_subtype>
modified

>  <m_Rgroups>
[H],[OH],[H]

>  <m_chem_types>
1:backbone_n,2:backbone_c,3:backbone_n_mod

>  <m_activation_policy>
canonical-sites-v1

$$$$

     RDKit          2D

  8  7  0  0  0  0  0  0  0  0999 V2000
   -1.2990    1.6875    0.0000 R   0  0  0  0  0  1  0  0  0  0  0  0
   -1.2990    0.1875    0.0000 N   0  0  0  0  0  0  0  0  0  0  0  0
   -2.5981   -0.5625    0.0000 R   0  0  0  0  0  1  0  0  0  0  0  0
    0.0000   -0.5625    0.0000 C   0  0  0  0  0  0  0  0  0  0  0  0
    0.0000   -2.0625    0.0000 C   0  0  0  0  0  0  0  0  0  0  0  0
    1.2990    0.1875    0.0000 C   0  0  0  0  0  0  0  0  0  0  0  0
    2.5981   -0.5625    0.0000 R   0  0  0  0  0  1  0  0  0  0  0  0
    1.2990    1.6875    0.0000 O   0  0  0  0  0  0  0  0  0  0  0  0
  1  2  1  0
  2  3  1  0
  2  4  1  0
  4  5  2  0
  4  6  1  0
  6  7  1  0
  6  8  2  0
M  ISO  3   1   1   3   3   7   2
M  END
>  <symbol>  (676) 
Dha

>  <m_abbr>  (676) 
Dha

>  <m_name>  (676) 
Dehydroalanine (alpha,beta-didehydroalanine)

>  <m_type>  (676) 
aa

>  <m_subtype>  (676) 
modified

>  <m_Rgroups>  (676) 
[H],[OH],[H]

>  <m_chem_types>  (676) 
1:backbone_n,2:backbone_c,3:backbone_n_mod

>  <m_activation_policy>  (676) 
canonical-sites-v1

$$$$

     RDKit          2D

  9  8  0  0  0  0  0  0  0  0999 V2000
   -0.0000    2.3094    0.0000 R   0  0  0  0  0  1  0  0  0  0  0  0
   -0.7500    1.0104    0.0000 N   0  0  0  0  0  0  0  0  0  0  0  0
   -2.2500    1.0104    0.0000 R   0  0  0  0  0  1  0  0  0  0  0  0
    0.0000   -0.2887    0.0000 C   0  0  0  0  0  0  0  0  0  0  0  0
   -0.7500   -1.5877    0.0000 C   0  0  0  0  0  0  0  0  0  0  0  0
   -2.2500   -1.5877    0.0000 C   0  0  0  0  0  0  0  0  0  0  0  0
    1.5000   -0.2887    0.0000 C   0  0  0  0  0  0  0  0  0  0  0  0
    2.2500    1.0104    0.0000 R   0  0  0  0  0  1  0  0  0  0  0  0
    2.2500   -1.5877    0.0000 O   0  0  0  0  0  0  0  0  0  0  0  0
  1  2  1  0
  2  3  1  0
  2  4  1  0
  4  5  2  0
  5  6  1  0
  4  7  1  0
  7  8  1  0
  7  9  2  0
M  ISO  3   1   1   3   3   8   2
M  END
>  <symbol>  (677) 
DeltaAbu

>  <m_abbr>  (677) 
DeltaAbu

>  <m_name>  (677) 
alpha,beta-Didehydroaminobutyric acid

>  <m_type>  (677) 
aa

>  <m_subtype>  (677) 
modified

>  <m_Rgroups>  (677) 
[H],[OH],[H]

>  <m_chem_types>  (677) 
1:backbone_n,2:backbone_c,3:backbone_n_mod

>  <m_activation_policy>  (677) 
canonical-sites-v1

$$$$

     RDKit          2D

 14 14  0  0  0  0  0  0  0  0999 V2000
   -2.3413    2.2101    0.0000 R   0  0  0  0  0  1  0  0  0  0  0  0
   -1.1930    1.2450    0.0000 N   0  0  0  0  0  0  0  0  0  0  0  0
    0.2170    1.7569    0.0000 R   0  0  0  0  0  1  0  0  0  0  0  0
   -1.4546   -0.2320    0.0000 C   0  0  0  0  0  0  0  0  0  0  0  0
   -0.3063   -1.1971    0.0000 C   0  0  0  0  0  0  0  0  0  0  0  0
    1.1037   -0.6851    0.0000 C   0  0  0  0  0  0  0  0  0  0  0  0
    1.3653    0.7919    0.0000 C   0  0  0  0  0  0  0  0  0  0  0  0
    2.7752    1.3038    0.0000 C   0  0  0  0  0  0  0  0  0  0  0  0
    3.9235    0.3387    0.0000 C   0  0  0  0  0  0  0  0  0  0  0  0
    3.6619   -1.1383    0.0000 C   0  0  0  0  0  0  0  0  0  0  0  0
    2.2520   -1.6502    0.0000 C   0  0  0  0  0  0  0  0  0  0  0  0
   -2.8645   -0.7439    0.0000 C   0  0  0  0  0  0  0  0  0  0  0  0
   -4.0128    0.2211    0.0000 R   0  0  0  0  0  1  0  0  0  0  0  0
   -3.1261   -2.2209    0.0000 O   0  0  0  0  0  0  0  0  0  0  0  0
  1  2  1  0
  2  3  1  0
  2  4  1  0
  4  5  2  3
  5  6  1  0
  6  7  2  0
  7  8  1  0
  8  9  2  0
  9 10  1  0
 10 11  2  0
  4 12  1  0
 12 13  1  0
 12 14  2  0
 11  6  1  0
M  ISO  3   1   1   3   3  13   2
M  END
>  <symbol>  (678) 
DeltaPhe

>  <m_abbr>  (678) 
DeltaPhe

>  <m_name>  (678) 
alpha,beta-Didehydrophenylalanine

>  <m_type>  (678) 
aa

>  <m_subtype>  (678) 
modified

>  <m_Rgroups>  (678) 
[H],[OH],[H]

>  <m_chem_types>  (678) 
1:backbone_n,2:backbone_c,3:backbone_n_mod

>  <m_activation_policy>  (678) 
canonical-sites-v1

$$$$

     RDKit          2D

 16 16  0  0  0  0  0  0  0  0999 V2000
   -2.3975    1.8033    0.0000 R   0  0  0  0  0  1  0  0  0  0  0  0
   -1.1988    0.9017    0.0000 N   0  0  0  0  0  0  0  0  0  0  0  0
    0.1815    1.4890    0.0000 R   0  0  0  0  0  1  0  0  0  0  0  0
   -1.3802   -0.5873    0.0000 C   0  0  0  0  0  0  0  0  0  0  0  0
   -2.7605   -1.1747    0.0000 C   0  0  0  0  0  0  0  0  0  0  0  0
   -3.9592   -0.2730    0.0000 C   0  0  0  0  0  0  0  0  0  0  0  0
   -5.3395   -0.8603    0.0000 R   0  0  0  0  0  1  0  0  0  0  0  0
   -3.7777    1.2160    0.0000 O   0  0  0  0  0  0  0  0  0  0  0  0
   -0.1815   -1.4890    0.0000 C   0  0  0  0  0  0  0  0  0  0  0  0
    1.1988   -0.9017    0.0000 C   0  0  0  0  0  0  0  0  0  0  0  0
    1.3802    0.5873    0.0000 C   0  0  0  0  0  0  0  0  0  0  0  0
    2.7605    1.1747    0.0000 C   0  0  0  0  0  0  0  0  0  0  0  0
    3.9592    0.2730    0.0000 C   0  0  0  0  0  0  0  0  0  0  0  0
    5.3395    0.8603    0.0000 F   0  0  0  0  0  0  0  0  0  0  0  0
    3.7777   -1.2160    0.0000 C   0  0  0  0  0  0  0  0  0  0  0  0
    2.3975   -1.8033    0.0000 C   0  0  0  0  0  0  0  0  0  0  0  0
  1  2  1  0
  2  3  1  0
  2  4  1  0
  4  5  1  1
  5  6  1  0
  6  7  1  0
  6  8  2  0
  4  9  1  0
  9 10  1  0
 10 11  1  0
 11 12  2  0
 12 13  1  0
 13 14  1  0
 13 15  2  0
 15 16  1  0
 16 10  2  0
M  ISO  3   1   1   3   3   7   2
M  END
>  <symbol>  (679) 
b3hPhe_4F

>  <m_abbr>  (679) 
b3hPhe_4F

>  <m_name>  (679) 
beta3-Homo-4-fluorophenylalanine (L)

>  <m_type>  (679) 
aa

>  <m_subtype>  (679) 
modified

>  <m_Rgroups>  (679) 
[H],[OH],[H]

>  <m_chem_types>  (679) 
1:backbone_n,2:backbone_c,3:backbone_n_mod

>  <m_activation_policy>  (679) 
canonical-sites-v1

$$$$

     RDKit          2D

 16 16  0  0  0  0  0  0  0  0999 V2000
   -2.3975    1.8033    0.0000 R   0  0  0  0  0  1  0  0  0  0  0  0
   -1.1988    0.9017    0.0000 N   0  0  0  0  0  0  0  0  0  0  0  0
    0.1815    1.4890    0.0000 R   0  0  0  0  0  1  0  0  0  0  0  0
   -1.3802   -0.5873    0.0000 C   0  0  0  0  0  0  0  0  0  0  0  0
   -2.7605   -1.1747    0.0000 C   0  0  0  0  0  0  0  0  0  0  0  0
   -3.9592   -0.2730    0.0000 C   0  0  0  0  0  0  0  0  0  0  0  0
   -5.3395   -0.8603    0.0000 R   0  0  0  0  0  1  0  0  0  0  0  0
   -3.7777    1.2160    0.0000 O   0  0  0  0  0  0  0  0  0  0  0  0
   -0.1815   -1.4890    0.0000 C   0  0  0  0  0  0  0  0  0  0  0  0
    1.1988   -0.9017    0.0000 C   0  0  0  0  0  0  0  0  0  0  0  0
    1.3802    0.5873    0.0000 C   0  0  0  0  0  0  0  0  0  0  0  0
    2.7605    1.1747    0.0000 C   0  0  0  0  0  0  0  0  0  0  0  0
    3.9592    0.2730    0.0000 C   0  0  0  0  0  0  0  0  0  0  0  0
    5.3395    0.8603    0.0000 Cl  0  0  0  0  0  0  0  0  0  0  0  0
    3.7777   -1.2160    0.0000 C   0  0  0  0  0  0  0  0  0  0  0  0
    2.3975   -1.8033    0.0000 C   0  0  0  0  0  0  0  0  0  0  0  0
  1  2  1  0
  2  3  1  0
  2  4  1  0
  4  5  1  1
  5  6  1  0
  6  7  1  0
  6  8  2  0
  4  9  1  0
  9 10  1  0
 10 11  1  0
 11 12  2  0
 12 13  1  0
 13 14  1  0
 13 15  2  0
 15 16  1  0
 16 10  2  0
M  ISO  3   1   1   3   3   7   2
M  END
>  <symbol>  (680) 
b3hPhe_4Cl

>  <m_abbr>  (680) 
b3hPhe_4Cl

>  <m_name>  (680) 
beta3-Homo-4-chlorophenylalanine (L)

>  <m_type>  (680) 
aa

>  <m_subtype>  (680) 
modified

>  <m_Rgroups>  (680) 
[H],[OH],[H]

>  <m_chem_types>  (680) 
1:backbone_n,2:backbone_c,3:backbone_n_mod

>  <m_activation_policy>  (680) 
canonical-sites-v1

$$$$

     RDKit          2D

 17 17  0  0  0  0  0  0  0  0999 V2000
   -2.7848    1.8016    0.0000 R   0  0  0  0  0  1  0  0  0  0  0  0
   -1.5847    0.9017    0.0000 N   0  0  0  0  0  0  0  0  0  0  0  0
   -0.2054    1.4911    0.0000 R   0  0  0  0  0  1  0  0  0  0  0  0
   -1.7640   -0.5875    0.0000 C   0  0  0  0  0  0  0  0  0  0  0  0
   -3.1433   -1.1769    0.0000 C   0  0  0  0  0  0  0  0  0  0  0  0
   -4.3434   -0.2771    0.0000 C   0  0  0  0  0  0  0  0  0  0  0  0
   -5.7228   -0.8665    0.0000 R   0  0  0  0  0  1  0  0  0  0  0  0
   -4.1642    1.2122    0.0000 O   0  0  0  0  0  0  0  0  0  0  0  0
   -0.5639   -1.4874    0.0000 C   0  0  0  0  0  0  0  0  0  0  0  0
    0.8155   -0.8980    0.0000 C   0  0  0  0  0  0  0  0  0  0  0  0
    0.9948    0.5912    0.0000 C   0  0  0  0  0  0  0  0  0  0  0  0
    2.3741    1.1806    0.0000 C   0  0  0  0  0  0  0  0  0  0  0  0
    3.5742    0.2808    0.0000 C   0  0  0  0  0  0  0  0  0  0  0  0
    4.9536    0.8702    0.0000 O   0  0  0  0  0  0  0  0  0  0  0  0
    6.1537   -0.0297    0.0000 C   0  0  0  0  0  0  0  0  0  0  0  0
    3.3950   -1.2085    0.0000 C   0  0  0  0  0  0  0  0  0  0  0  0
    2.0156   -1.7979    0.0000 C   0  0  0  0  0  0  0  0  0  0  0  0
  1  2  1  0
  2  3  1  0
  2  4  1  0
  4  5  1  1
  5  6  1  0
  6  7  1  0
  6  8  2  0
  4  9  1  0
  9 10  1  0
 10 11  1  0
 11 12  2  0
 12 13  1  0
 13 14  1  0
 14 15  1  0
 13 16  2  0
 16 17  1  0
 17 10  2  0
M  ISO  3   1   1   3   3   7   2
M  END
>  <symbol>  (681) 
b3hPhe_4OMe

>  <m_abbr>  (681) 
b3hPhe_4OMe

>  <m_name>  (681) 
beta3-Homo-4-methoxyphenylalanine (L)

>  <m_type>  (681) 
aa

>  <m_subtype>  (681) 
modified

>  <m_Rgroups>  (681) 
[H],[OH],[H]

>  <m_chem_types>  (681) 
1:backbone_n,2:backbone_c,3:backbone_n_mod

>  <m_activation_policy>  (681) 
canonical-sites-v1

$$$$

     RDKit          2D

 16 16  0  0  0  0  0  0  0  0999 V2000
   -2.3975    1.8033    0.0000 R   0  0  0  0  0  1  0  0  0  0  0  0
   -1.1988    0.9017    0.0000 N   0  0  0  0  0  0  0  0  0  0  0  0
    0.1815    1.4890    0.0000 R   0  0  0  0  0  1  0  0  0  0  0  0
   -1.3802   -0.5873    0.0000 C   0  0  0  0  0  0  0  0  0  0  0  0
   -2.7605   -1.1747    0.0000 C   0  0  0  0  0  0  0  0  0  0  0  0
   -3.9592   -0.2730    0.0000 C   0  0  0  0  0  0  0  0  0  0  0  0
   -5.3395   -0.8603    0.0000 R   0  0  0  0  0  1  0  0  0  0  0  0
   -3.7777    1.2160    0.0000 O   0  0  0  0  0  0  0  0  0  0  0  0
   -0.1815   -1.4890    0.0000 C   0  0  0  0  0  0  0  0  0  0  0  0
    1.1988   -0.9017    0.0000 C   0  0  0  0  0  0  0  0  0  0  0  0
    1.3802    0.5873    0.0000 C   0  0  0  0  0  0  0  0  0  0  0  0
    2.7605    1.1747    0.0000 C   0  0  0  0  0  0  0  0  0  0  0  0
    3.9592    0.2730    0.0000 C   0  0  0  0  0  0  0  0  0  0  0  0
    5.3395    0.8603    0.0000 Br  0  0  0  0  0  0  0  0  0  0  0  0
    3.7777   -1.2160    0.0000 C   0  0  0  0  0  0  0  0  0  0  0  0
    2.3975   -1.8033    0.0000 C   0  0  0  0  0  0  0  0  0  0  0  0
  1  2  1  0
  2  3  1  0
  2  4  1  0
  4  5  1  1
  5  6  1  0
  6  7  1  0
  6  8  2  0
  4  9  1  0
  9 10  1  0
 10 11  1  0
 11 12  2  0
 12 13  1  0
 13 14  1  0
 13 15  2  0
 15 16  1  0
 16 10  2  0
M  ISO  3   1   1   3   3   7   2
M  END
>  <symbol>  (682) 
b3hPhe_4Br

>  <m_abbr>  (682) 
b3hPhe_4Br

>  <m_name>  (682) 
beta3-Homo-4-bromophenylalanine (L)

>  <m_type>  (682) 
aa

>  <m_subtype>  (682) 
modified

>  <m_Rgroups>  (682) 
[H],[OH],[H]

>  <m_chem_types>  (682) 
1:backbone_n,2:backbone_c,3:backbone_n_mod

>  <m_activation_policy>  (682) 
canonical-sites-v1

$$$$

     RDKit          2D

 16 16  0  0  0  0  0  0  0  0999 V2000
   -2.3975    1.8033    0.0000 R   0  0  0  0  0  1  0  0  0  0  0  0
   -1.1988    0.9017    0.0000 N   0  0  0  0  0  0  0  0  0  0  0  0
    0.1815    1.4890    0.0000 R   0  0  0  0  0  1  0  0  0  0  0  0
   -1.3802   -0.5873    0.0000 C   0  0  0  0  0  0  0  0  0  0  0  0
   -2.7605   -1.1747    0.0000 C   0  0  0  0  0  0  0  0  0  0  0  0
   -3.9592   -0.2730    0.0000 C   0  0  0  0  0  0  0  0  0  0  0  0
   -5.3395   -0.8603    0.0000 R   0  0  0  0  0  1  0  0  0  0  0  0
   -3.7777    1.2160    0.0000 O   0  0  0  0  0  0  0  0  0  0  0  0
   -0.1815   -1.4890    0.0000 C   0  0  0  0  0  0  0  0  0  0  0  0
    1.1988   -0.9017    0.0000 C   0  0  0  0  0  0  0  0  0  0  0  0
    1.3802    0.5873    0.0000 C   0  0  0  0  0  0  0  0  0  0  0  0
    2.7605    1.1747    0.0000 C   0  0  0  0  0  0  0  0  0  0  0  0
    3.9592    0.2730    0.0000 C   0  0  0  0  0  0  0  0  0  0  0  0
    5.3395    0.8603    0.0000 F   0  0  0  0  0  0  0  0  0  0  0  0
    3.7777   -1.2160    0.0000 C   0  0  0  0  0  0  0  0  0  0  0  0
    2.3975   -1.8033    0.0000 C   0  0  0  0  0  0  0  0  0  0  0  0
  1  2  1  0
  2  3  1  0
  2  4  1  0
  4  5  1  6
  5  6  1  0
  6  7  1  0
  6  8  2  0
  4  9  1  0
  9 10  1  0
 10 11  1  0
 11 12  2  0
 12 13  1  0
 13 14  1  0
 13 15  2  0
 15 16  1  0
 16 10  2  0
M  ISO  3   1   1   3   3   7   2
M  END
>  <symbol>  (683) 
D_b3hPhe_4F

>  <m_abbr>  (683) 
D_b3hPhe_4F

>  <m_name>  (683) 
D-beta3-Homo-4-fluorophenylalanine

>  <m_type>  (683) 
aa

>  <m_subtype>  (683) 
modified

>  <m_Rgroups>  (683) 
[H],[OH],[H]

>  <m_chem_types>  (683) 
1:backbone_n,2:backbone_c,3:backbone_n_mod

>  <m_activation_policy>  (683) 
canonical-sites-v1

$$$$

     RDKit          2D

 16 16  0  0  0  0  0  0  0  0999 V2000
   -2.3975    1.8033    0.0000 R   0  0  0  0  0  1  0  0  0  0  0  0
   -1.1988    0.9017    0.0000 N   0  0  0  0  0  0  0  0  0  0  0  0
    0.1815    1.4890    0.0000 R   0  0  0  0  0  1  0  0  0  0  0  0
   -1.3802   -0.5873    0.0000 C   0  0  0  0  0  0  0  0  0  0  0  0
   -2.7605   -1.1747    0.0000 C   0  0  0  0  0  0  0  0  0  0  0  0
   -3.9592   -0.2730    0.0000 C   0  0  0  0  0  0  0  0  0  0  0  0
   -5.3395   -0.8603    0.0000 R   0  0  0  0  0  1  0  0  0  0  0  0
   -3.7777    1.2160    0.0000 O   0  0  0  0  0  0  0  0  0  0  0  0
   -0.1815   -1.4890    0.0000 C   0  0  0  0  0  0  0  0  0  0  0  0
    1.1988   -0.9017    0.0000 C   0  0  0  0  0  0  0  0  0  0  0  0
    1.3802    0.5873    0.0000 C   0  0  0  0  0  0  0  0  0  0  0  0
    2.7605    1.1747    0.0000 C   0  0  0  0  0  0  0  0  0  0  0  0
    3.9592    0.2730    0.0000 C   0  0  0  0  0  0  0  0  0  0  0  0
    5.3395    0.8603    0.0000 Cl  0  0  0  0  0  0  0  0  0  0  0  0
    3.7777   -1.2160    0.0000 C   0  0  0  0  0  0  0  0  0  0  0  0
    2.3975   -1.8033    0.0000 C   0  0  0  0  0  0  0  0  0  0  0  0
  1  2  1  0
  2  3  1  0
  2  4  1  0
  4  5  1  6
  5  6  1  0
  6  7  1  0
  6  8  2  0
  4  9  1  0
  9 10  1  0
 10 11  1  0
 11 12  2  0
 12 13  1  0
 13 14  1  0
 13 15  2  0
 15 16  1  0
 16 10  2  0
M  ISO  3   1   1   3   3   7   2
M  END
>  <symbol>  (684) 
D_b3hPhe_4Cl

>  <m_abbr>  (684) 
D_b3hPhe_4Cl

>  <m_name>  (684) 
D-beta3-Homo-4-chlorophenylalanine

>  <m_type>  (684) 
aa

>  <m_subtype>  (684) 
modified

>  <m_Rgroups>  (684) 
[H],[OH],[H]

>  <m_chem_types>  (684) 
1:backbone_n,2:backbone_c,3:backbone_n_mod

>  <m_activation_policy>  (684) 
canonical-sites-v1

$$$$

     RDKit          2D

 17 17  0  0  0  0  0  0  0  0999 V2000
   -2.7848    1.8016    0.0000 R   0  0  0  0  0  1  0  0  0  0  0  0
   -1.5847    0.9017    0.0000 N   0  0  0  0  0  0  0  0  0  0  0  0
   -0.2054    1.4911    0.0000 R   0  0  0  0  0  1  0  0  0  0  0  0
   -1.7640   -0.5875    0.0000 C   0  0  0  0  0  0  0  0  0  0  0  0
   -3.1433   -1.1769    0.0000 C   0  0  0  0  0  0  0  0  0  0  0  0
   -4.3434   -0.2771    0.0000 C   0  0  0  0  0  0  0  0  0  0  0  0
   -5.7228   -0.8665    0.0000 R   0  0  0  0  0  1  0  0  0  0  0  0
   -4.1642    1.2122    0.0000 O   0  0  0  0  0  0  0  0  0  0  0  0
   -0.5639   -1.4874    0.0000 C   0  0  0  0  0  0  0  0  0  0  0  0
    0.8155   -0.8980    0.0000 C   0  0  0  0  0  0  0  0  0  0  0  0
    0.9948    0.5912    0.0000 C   0  0  0  0  0  0  0  0  0  0  0  0
    2.3741    1.1806    0.0000 C   0  0  0  0  0  0  0  0  0  0  0  0
    3.5742    0.2808    0.0000 C   0  0  0  0  0  0  0  0  0  0  0  0
    4.9536    0.8702    0.0000 O   0  0  0  0  0  0  0  0  0  0  0  0
    6.1537   -0.0297    0.0000 C   0  0  0  0  0  0  0  0  0  0  0  0
    3.3950   -1.2085    0.0000 C   0  0  0  0  0  0  0  0  0  0  0  0
    2.0156   -1.7979    0.0000 C   0  0  0  0  0  0  0  0  0  0  0  0
  1  2  1  0
  2  3  1  0
  2  4  1  0
  4  5  1  6
  5  6  1  0
  6  7  1  0
  6  8  2  0
  4  9  1  0
  9 10  1  0
 10 11  1  0
 11 12  2  0
 12 13  1  0
 13 14  1  0
 14 15  1  0
 13 16  2  0
 16 17  1  0
 17 10  2  0
M  ISO  3   1   1   3   3   7   2
M  END
>  <symbol>  (685) 
D_b3hPhe_4OMe

>  <m_abbr>  (685) 
D_b3hPhe_4OMe

>  <m_name>  (685) 
D-beta3-Homo-4-methoxyphenylalanine

>  <m_type>  (685) 
aa

>  <m_subtype>  (685) 
modified

>  <m_Rgroups>  (685) 
[H],[OH],[H]

>  <m_chem_types>  (685) 
1:backbone_n,2:backbone_c,3:backbone_n_mod

>  <m_activation_policy>  (685) 
canonical-sites-v1

$$$$

     RDKit          2D

  8  7  0  0  0  0  0  0  0  0999 V2000
    3.1182    0.9820    0.0000 R   0  0  0  0  0  1  0  0  0  0  0  0
    1.9843    0.0000    0.0000 C   0  0  0  0  0  0  0  0  0  0  0  0
    2.2678   -1.4730    0.0000 O   0  0  0  0  0  0  0  0  0  0  0  0
    0.5669    0.4910    0.0000 C   0  0  0  0  0  0  0  0  0  0  0  0
   -0.5669   -0.4910    0.0000 C   0  0  0  0  0  0  0  0  0  0  0  0
   -1.9843   -0.0000    0.0000 C   0  0  0  0  0  0  0  0  0  0  0  0
   -3.1182   -0.9820    0.0000 R   0  0  0  0  0  1  0  0  0  0  0  0
   -2.2678    1.4730    0.0000 O   0  0  0  0  0  0  0  0  0  0  0  0
  1  2  1  0
  2  3  2  0
  2  4  1  0
  4  5  1  0
  5  6  1  0
  6  7  1  0
  6  8  2  0
M  ISO  2   1   2   7   4
M  END
>  <symbol>  (686) 
Succ

>  <m_abbr>  (686) 
Succ

>  <m_name>  (686) 
Succinyl cap (C4 diacid)

>  <m_type>  (686) 
cap

>  <m_subtype>  (686) 
cap

>  <m_Rgroups>  (686) 
None,[OH],None,[OH]

>  <m_chem_types>  (686) 
2:backbone_c,4:carboxyl

>  <m_activation_policy>  (686) 
canonical-sites-v1

$$$$

     RDKit          2D

  9  8  0  0  0  0  0  0  0  0999 V2000
   -3.8971   -0.7500    0.0000 R   0  0  0  0  0  1  0  0  0  0  0  0
   -2.5981    0.0000    0.0000 C   0  0  0  0  0  0  0  0  0  0  0  0
   -2.5981    1.5000    0.0000 O   0  0  0  0  0  0  0  0  0  0  0  0
   -1.2990   -0.7500    0.0000 C   0  0  0  0  0  0  0  0  0  0  0  0
    0.0000    0.0000    0.0000 C   0  0  0  0  0  0  0  0  0  0  0  0
    1.2990   -0.7500    0.0000 C   0  0  0  0  0  0  0  0  0  0  0  0
    2.5981   -0.0000    0.0000 C   0  0  0  0  0  0  0  0  0  0  0  0
    3.8971   -0.7500    0.0000 R   0  0  0  0  0  1  0  0  0  0  0  0
    2.5981    1.5000    0.0000 O   0  0  0  0  0  0  0  0  0  0  0  0
  1  2  1  0
  2  3  2  0
  2  4  1  0
  4  5  1  0
  5  6  1  0
  6  7  1  0
  7  8  1  0
  7  9  2  0
M  ISO  2   1   2   8   4
M  END
>  <symbol>  (687) 
Glt

>  <m_abbr>  (687) 
Glt

>  <m_name>  (687) 
Glutaryl cap (C5 diacid)

>  <m_type>  (687) 
cap

>  <m_subtype>  (687) 
cap

>  <m_Rgroups>  (687) 
None,[OH],None,[OH]

>  <m_chem_types>  (687) 
2:backbone_c,4:carboxyl

>  <m_activation_policy>  (687) 
canonical-sites-v1

$$$$

     RDKit          2D

 10  9  0  0  0  0  0  0  0  0999 V2000
    4.4693    0.9153    0.0000 R   0  0  0  0  0  1  0  0  0  0  0  0
    3.2691    0.0155    0.0000 C   0  0  0  0  0  0  0  0  0  0  0  0
    3.4483   -1.4737    0.0000 O   0  0  0  0  0  0  0  0  0  0  0  0
    1.8898    0.6050    0.0000 C   0  0  0  0  0  0  0  0  0  0  0  0
    0.6897   -0.2947    0.0000 C   0  0  0  0  0  0  0  0  0  0  0  0
   -0.6897    0.2947    0.0000 C   0  0  0  0  0  0  0  0  0  0  0  0
   -1.8898   -0.6050    0.0000 C   0  0  0  0  0  0  0  0  0  0  0  0
   -3.2691   -0.0155    0.0000 C   0  0  0  0  0  0  0  0  0  0  0  0
   -4.4693   -0.9153    0.0000 R   0  0  0  0  0  1  0  0  0  0  0  0
   -3.4483    1.4737    0.0000 O   0  0  0  0  0  0  0  0  0  0  0  0
  1  2  1  0
  2  3  2  0
  2  4  1  0
  4  5  1  0
  5  6  1  0
  6  7  1  0
  7  8  1  0
  8  9  1  0
  8 10  2  0
M  ISO  2   1   2   9   4
M  END
>  <symbol>  (688) 
Adp

>  <m_abbr>  (688) 
Adp

>  <m_name>  (688) 
Adipoyl cap (C6 diacid)

>  <m_type>  (688) 
cap

>  <m_subtype>  (688) 
cap

>  <m_Rgroups>  (688) 
None,[OH],None,[OH]

>  <m_chem_types>  (688) 
2:backbone_c,4:carboxyl

>  <m_activation_policy>  (688) 
canonical-sites-v1

$$$$

     RDKit          2D

 11 10  0  0  0  0  0  0  0  0999 V2000
   -5.1962   -0.6818    0.0000 R   0  0  0  0  0  1  0  0  0  0  0  0
   -3.8971    0.0682    0.0000 C   0  0  0  0  0  0  0  0  0  0  0  0
   -3.8971    1.5682    0.0000 O   0  0  0  0  0  0  0  0  0  0  0  0
   -2.5981   -0.6818    0.0000 C   0  0  0  0  0  0  0  0  0  0  0  0
   -1.2990    0.0682    0.0000 C   0  0  0  0  0  0  0  0  0  0  0  0
    0.0000   -0.6818    0.0000 C   0  0  0  0  0  0  0  0  0  0  0  0
    1.2990    0.0682    0.0000 C   0  0  0  0  0  0  0  0  0  0  0  0
    2.5981   -0.6818    0.0000 C   0  0  0  0  0  0  0  0  0  0  0  0
    3.8971    0.0682    0.0000 C   0  0  0  0  0  0  0  0  0  0  0  0
    5.1962   -0.6818    0.0000 R   0  0  0  0  0  1  0  0  0  0  0  0
    3.8971    1.5682    0.0000 O   0  0  0  0  0  0  0  0  0  0  0  0
  1  2  1  0
  2  3  2  0
  2  4  1  0
  4  5  1  0
  5  6  1  0
  6  7  1  0
  7  8  1  0
  8  9  1  0
  9 10  1  0
  9 11  2  0
M  ISO  2   1   2  10   4
M  END
>  <symbol>  (689) 
Pim

>  <m_abbr>  (689) 
Pim

>  <m_name>  (689) 
Pimeloyl cap (C7 diacid)

>  <m_type>  (689) 
cap

>  <m_subtype>  (689) 
cap

>  <m_Rgroups>  (689) 
None,[OH],None,[OH]

>  <m_chem_types>  (689) 
2:backbone_c,4:carboxyl

>  <m_activation_policy>  (689) 
canonical-sites-v1

$$$$

     RDKit          2D

 12 11  0  0  0  0  0  0  0  0999 V2000
    5.7935    0.8647    0.0000 R   0  0  0  0  0  1  0  0  0  0  0  0
    4.5621    0.0083    0.0000 C   0  0  0  0  0  0  0  0  0  0  0  0
    4.6881   -1.4864    0.0000 O   0  0  0  0  0  0  0  0  0  0  0  0
    3.2046    0.6465    0.0000 C   0  0  0  0  0  0  0  0  0  0  0  0
    1.9732   -0.2100    0.0000 C   0  0  0  0  0  0  0  0  0  0  0  0
    0.6157    0.4282    0.0000 C   0  0  0  0  0  0  0  0  0  0  0  0
   -0.6157   -0.4282    0.0000 C   0  0  0  0  0  0  0  0  0  0  0  0
   -1.9732    0.2100    0.0000 C   0  0  0  0  0  0  0  0  0  0  0  0
   -3.2046   -0.6465    0.0000 C   0  0  0  0  0  0  0  0  0  0  0  0
   -4.5621   -0.0083    0.0000 C   0  0  0  0  0  0  0  0  0  0  0  0
   -5.7935   -0.8647    0.0000 R   0  0  0  0  0  1  0  0  0  0  0  0
   -4.6881    1.4864    0.0000 O   0  0  0  0  0  0  0  0  0  0  0  0
  1  2  1  0
  2  3  2  0
  2  4  1  0
  4  5  1  0
  5  6  1  0
  6  7  1  0
  7  8  1  0
  8  9  1  0
  9 10  1  0
 10 11  1  0
 10 12  2  0
M  ISO  2   1   2  11   4
M  END
>  <symbol>  (690) 
Sub

>  <m_abbr>  (690) 
Sub

>  <m_name>  (690) 
Suberoyl cap (C8 diacid)

>  <m_type>  (690) 
cap

>  <m_subtype>  (690) 
cap

>  <m_Rgroups>  (690) 
None,[OH],None,[OH]

>  <m_chem_types>  (690) 
2:backbone_c,4:carboxyl

>  <m_activation_policy>  (690) 
canonical-sites-v1

$$$$

     RDKit          2D

 13 12  0  0  0  0  0  0  0  0999 V2000
   -6.4952   -0.6346    0.0000 R   0  0  0  0  0  1  0  0  0  0  0  0
   -5.1962    0.1154    0.0000 C   0  0  0  0  0  0  0  0  0  0  0  0
   -5.1962    1.6154    0.0000 O   0  0  0  0  0  0  0  0  0  0  0  0
   -3.8971   -0.6346    0.0000 C   0  0  0  0  0  0  0  0  0  0  0  0
   -2.5981    0.1154    0.0000 C   0  0  0  0  0  0  0  0  0  0  0  0
   -1.2990   -0.6346    0.0000 C   0  0  0  0  0  0  0  0  0  0  0  0
    0.0000    0.1154    0.0000 C   0  0  0  0  0  0  0  0  0  0  0  0
    1.2990   -0.6346    0.0000 C   0  0  0  0  0  0  0  0  0  0  0  0
    2.5981    0.1154    0.0000 C   0  0  0  0  0  0  0  0  0  0  0  0
    3.8971   -0.6346    0.0000 C   0  0  0  0  0  0  0  0  0  0  0  0
    5.1962    0.1154    0.0000 C   0  0  0  0  0  0  0  0  0  0  0  0
    6.4952   -0.6346    0.0000 R   0  0  0  0  0  1  0  0  0  0  0  0
    5.1962    1.6154    0.0000 O   0  0  0  0  0  0  0  0  0  0  0  0
  1  2  1  0
  2  3  2  0
  2  4  1  0
  4  5  1  0
  5  6  1  0
  6  7  1  0
  7  8  1  0
  8  9  1  0
  9 10  1  0
 10 11  1  0
 11 12  1  0
 11 13  2  0
M  ISO  2   1   2  12   4
M  END
>  <symbol>  (691) 
Azel

>  <m_abbr>  (691) 
Azel

>  <m_name>  (691) 
Azelaoyl cap (C9 diacid)

>  <m_type>  (691) 
cap

>  <m_subtype>  (691) 
cap

>  <m_Rgroups>  (691) 
None,[OH],None,[OH]

>  <m_chem_types>  (691) 
2:backbone_c,4:carboxyl

>  <m_activation_policy>  (691) 
canonical-sites-v1

$$$$

     RDKit          2D

 14 13  0  0  0  0  0  0  0  0999 V2000
    7.1071    0.8226    0.0000 R   0  0  0  0  0  1  0  0  0  0  0  0
    5.8577   -0.0074    0.0000 C   0  0  0  0  0  0  0  0  0  0  0  0
    5.9518   -1.5044    0.0000 O   0  0  0  0  0  0  0  0  0  0  0  0
    4.5141    0.6596    0.0000 C   0  0  0  0  0  0  0  0  0  0  0  0
    3.2647   -0.1705    0.0000 C   0  0  0  0  0  0  0  0  0  0  0  0
    1.9212    0.4965    0.0000 C   0  0  0  0  0  0  0  0  0  0  0  0
    0.6718   -0.3335    0.0000 C   0  0  0  0  0  0  0  0  0  0  0  0
   -0.6718    0.3335    0.0000 C   0  0  0  0  0  0  0  0  0  0  0  0
   -1.9212   -0.4965    0.0000 C   0  0  0  0  0  0  0  0  0  0  0  0
   -3.2647    0.1705    0.0000 C   0  0  0  0  0  0  0  0  0  0  0  0
   -4.5141   -0.6596    0.0000 C   0  0  0  0  0  0  0  0  0  0  0  0
   -5.8577    0.0074    0.0000 C   0  0  0  0  0  0  0  0  0  0  0  0
   -7.1071   -0.8226    0.0000 R   0  0  0  0  0  1  0  0  0  0  0  0
   -5.9518    1.5044    0.0000 O   0  0  0  0  0  0  0  0  0  0  0  0
  1  2  1  0
  2  3  2  0
  2  4  1  0
  4  5  1  0
  5  6  1  0
  6  7  1  0
  7  8  1  0
  8  9  1  0
  9 10  1  0
 10 11  1  0
 11 12  1  0
 12 13  1  0
 12 14  2  0
M  ISO  2   1   2  13   4
M  END
>  <symbol>  (692) 
Seb

>  <m_abbr>  (692) 
Seb

>  <m_name>  (692) 
Sebacoyl cap (C10 diacid)

>  <m_type>  (692) 
cap

>  <m_subtype>  (692) 
cap

>  <m_Rgroups>  (692) 
None,[OH],None,[OH]

>  <m_chem_types>  (692) 
2:backbone_c,4:carboxyl

>  <m_activation_policy>  (692) 
canonical-sites-v1

$$$$

     RDKit          2D

 16 15  0  0  0  0  0  0  0  0999 V2000
    8.4154    0.7870    0.0000 R   0  0  0  0  0  1  0  0  0  0  0  0
    7.1545   -0.0256    0.0000 C   0  0  0  0  0  0  0  0  0  0  0  0
    7.2278   -1.5238    0.0000 O   0  0  0  0  0  0  0  0  0  0  0  0
    5.8204    0.6601    0.0000 C   0  0  0  0  0  0  0  0  0  0  0  0
    4.5595   -0.1525    0.0000 C   0  0  0  0  0  0  0  0  0  0  0  0
    3.2254    0.5332    0.0000 C   0  0  0  0  0  0  0  0  0  0  0  0
    1.9645   -0.2794    0.0000 C   0  0  0  0  0  0  0  0  0  0  0  0
    0.6304    0.4063    0.0000 C   0  0  0  0  0  0  0  0  0  0  0  0
   -0.6304   -0.4063    0.0000 C   0  0  0  0  0  0  0  0  0  0  0  0
   -1.9645    0.2794    0.0000 C   0  0  0  0  0  0  0  0  0  0  0  0
   -3.2254   -0.5332    0.0000 C   0  0  0  0  0  0  0  0  0  0  0  0
   -4.5595    0.1525    0.0000 C   0  0  0  0  0  0  0  0  0  0  0  0
   -5.8204   -0.6601    0.0000 C   0  0  0  0  0  0  0  0  0  0  0  0
   -7.1545    0.0256    0.0000 C   0  0  0  0  0  0  0  0  0  0  0  0
   -8.4154   -0.7870    0.0000 R   0  0  0  0  0  1  0  0  0  0  0  0
   -7.2278    1.5238    0.0000 O   0  0  0  0  0  0  0  0  0  0  0  0
  1  2  1  0
  2  3  2  0
  2  4  1  0
  4  5  1  0
  5  6  1  0
  6  7  1  0
  7  8  1  0
  8  9  1  0
  9 10  1  0
 10 11  1  0
 11 12  1  0
 12 13  1  0
 13 14  1  0
 14 15  1  0
 14 16  2  0
M  ISO  2   1   2  15   4
M  END
>  <symbol>  (693) 
Dod_dAcid

>  <m_abbr>  (693) 
Dod_dAcid

>  <m_name>  (693) 
Dodecanedioyl cap (C12 diacid)

>  <m_type>  (693) 
cap

>  <m_subtype>  (693) 
cap

>  <m_Rgroups>  (693) 
None,[OH],None,[OH]

>  <m_chem_types>  (693) 
2:backbone_c,4:carboxyl

>  <m_activation_policy>  (693) 
canonical-sites-v1

$$$$

     RDKit          2D

  5  4  0  0  0  0  0  0  0  0999 V2000
   -1.8187   -0.7500    0.0000 R   0  0  0  0  0  1  0  0  0  0  0  0
   -0.5196    0.0000    0.0000 C   0  0  0  0  0  0  0  0  0  0  0  0
   -0.5196    1.5000    0.0000 O   0  0  0  0  0  0  0  0  0  0  0  0
    0.7794   -0.7500    0.0000 C   0  0  0  0  0  0  0  0  0  0  0  0
    2.0785   -0.0000    0.0000 R   0  0  0  0  0  1  0  0  0  0  0  0
  1  2  1  0
  2  3  2  0
  2  4  1  0
  4  5  1  0
M  ISO  2   1   2   5   4
M  END
>  <symbol>  (694) 
ClAc

>  <m_abbr>  (694) 
ClAc

>  <m_name>  (694) 
Chloroacetyl cap

>  <m_type>  (694) 
cap

>  <m_subtype>  (694) 
cap

>  <m_Rgroups>  (694) 
None,[OH],None,[Cl]

>  <m_chem_types>  (694) 
2:backbone_c,4:alkyl_halide_c

>  <m_activation_policy>  (694) 
canonical-sites-v1

$$$$

     RDKit          2D

  5  4  0  0  0  0  0  0  0  0999 V2000
   -1.8187   -0.7500    0.0000 R   0  0  0  0  0  1  0  0  0  0  0  0
   -0.5196    0.0000    0.0000 C   0  0  0  0  0  0  0  0  0  0  0  0
   -0.5196    1.5000    0.0000 O   0  0  0  0  0  0  0  0  0  0  0  0
    0.7794   -0.7500    0.0000 C   0  0  0  0  0  0  0  0  0  0  0  0
    2.0785   -0.0000    0.0000 R   0  0  0  0  0  1  0  0  0  0  0  0
  1  2  1  0
  2  3  2  0
  2  4  1  0
  4  5  1  0
M  ISO  2   1   2   5   4
M  END
>  <symbol>  (695) 
BrAc

>  <m_abbr>  (695) 
BrAc

>  <m_name>  (695) 
Bromoacetyl cap

>  <m_type>  (695) 
cap

>  <m_subtype>  (695) 
cap

>  <m_Rgroups>  (695) 
None,[OH],None,[Br]

>  <m_chem_types>  (695) 
2:backbone_c,4:alkyl_halide_c

>  <m_activation_policy>  (695) 
canonical-sites-v1

$$$$

     RDKit          2D

  5  4  0  0  0  0  0  0  0  0999 V2000
   -1.8187   -0.7500    0.0000 R   0  0  0  0  0  1  0  0  0  0  0  0
   -0.5196    0.0000    0.0000 C   0  0  0  0  0  0  0  0  0  0  0  0
   -0.5196    1.5000    0.0000 O   0  0  0  0  0  0  0  0  0  0  0  0
    0.7794   -0.7500    0.0000 C   0  0  0  0  0  0  0  0  0  0  0  0
    2.0785   -0.0000    0.0000 C   0  0  0  0  0  0  0  0  0  0  0  0
  1  2  1  0
  2  3  2  0
  2  4  1  0
  4  5  1  0
M  ISO  1   1   2
M  END
>  <symbol>  (696) 
PropCap

>  <m_abbr>  (696) 
PropCap

>  <m_name>  (696) 
Propionyl cap

>  <m_type>  (696) 
cap

>  <m_subtype>  (696) 
cap

>  <m_Rgroups>  (696) 
None,[OH]

>  <m_chem_types>  (696) 
2:backbone_c

>  <m_activation_policy>  (696) 
canonical-sites-v1

$$$$

     RDKit          2D

  6  5  0  0  0  0  0  0  0  0999 V2000
    2.2689    0.9563    0.0000 R   0  0  0  0  0  1  0  0  0  0  0  0
    1.0893    0.0297    0.0000 C   0  0  0  0  0  0  0  0  0  0  0  0
    1.3020   -1.4551    0.0000 O   0  0  0  0  0  0  0  0  0  0  0  0
   -0.3029    0.5880    0.0000 C   0  0  0  0  0  0  0  0  0  0  0  0
   -1.4825   -0.3386    0.0000 C   0  0  0  0  0  0  0  0  0  0  0  0
   -2.8748    0.2197    0.0000 C   0  0  0  0  0  0  0  0  0  0  0  0
  1  2  1  0
  2  3  2  0
  2  4  1  0
  4  5  1  0
  5  6  1  0
M  ISO  1   1   2
M  END
>  <symbol>  (697) 
ButCap

>  <m_abbr>  (697) 
ButCap

>  <m_name>  (697) 
Butyryl cap

>  <m_type>  (697) 
cap

>  <m_subtype>  (697) 
cap

>  <m_Rgroups>  (697) 
None,[OH]

>  <m_chem_types>  (697) 
2:backbone_c

>  <m_activation_policy>  (697) 
canonical-sites-v1

$$$$

     RDKit          2D

  8  7  0  0  0  0  0  0  0  0999 V2000
    3.5085    0.8766    0.0000 R   0  0  0  0  0  1  0  0  0  0  0  0
    2.2810    0.0145    0.0000 C   0  0  0  0  0  0  0  0  0  0  0  0
    2.4138   -1.4796    0.0000 O   0  0  0  0  0  0  0  0  0  0  0  0
    0.9207    0.6465    0.0000 C   0  0  0  0  0  0  0  0  0  0  0  0
   -0.3069   -0.2155    0.0000 C   0  0  0  0  0  0  0  0  0  0  0  0
   -1.6672    0.4165    0.0000 C   0  0  0  0  0  0  0  0  0  0  0  0
   -2.8948   -0.4455    0.0000 C   0  0  0  0  0  0  0  0  0  0  0  0
   -4.2551    0.1865    0.0000 C   0  0  0  0  0  0  0  0  0  0  0  0
  1  2  1  0
  2  3  2  0
  2  4  1  0
  4  5  1  0
  5  6  1  0
  6  7  1  0
  7  8  1  0
M  ISO  1   1   2
M  END
>  <symbol>  (698) 
HexCap

>  <m_abbr>  (698) 
HexCap

>  <m_name>  (698) 
Hexanoyl cap

>  <m_type>  (698) 
cap

>  <m_subtype>  (698) 
cap

>  <m_Rgroups>  (698) 
None,[OH]

>  <m_chem_types>  (698) 
2:backbone_c

>  <m_activation_policy>  (698) 
canonical-sites-v1

$$$$

     RDKit          2D

  7  6  0  0  0  0  0  0  0  0999 V2000
    1.6071    1.2990    0.0000 R   0  0  0  0  0  1  0  0  0  0  0  0
    0.8571    0.0000    0.0000 C   0  0  0  0  0  0  0  0  0  0  0  0
    1.6071   -1.2990    0.0000 O   0  0  0  0  0  0  0  0  0  0  0  0
   -0.6429   -0.0000    0.0000 C   0  0  0  0  0  0  0  0  0  0  0  0
   -2.1429   -0.0000    0.0000 F   0  0  0  0  0  0  0  0  0  0  0  0
   -0.6429   -1.5000    0.0000 F   0  0  0  0  0  0  0  0  0  0  0  0
   -0.6429    1.5000    0.0000 F   0  0  0  0  0  0  0  0  0  0  0  0
  1  2  1  0
  2  3  2  0
  2  4  1  0
  4  5  1  0
  4  6  1  0
  4  7  1  0
M  ISO  1   1   2
M  END
>  <symbol>  (699) 
CF3Ac

>  <m_abbr>  (699) 
CF3Ac

>  <m_name>  (699) 
Trifluoroacetyl cap

>  <m_type>  (699) 
cap

>  <m_subtype>  (699) 
cap

>  <m_Rgroups>  (699) 
None,[OH]

>  <m_chem_types>  (699) 
2:backbone_c

>  <m_activation_policy>  (699) 
canonical-sites-v1

$$$$

     RDKit          2D

 14 13  0  0  0  0  0  0  0  0999 V2000
   -7.1071    0.8226    0.0000 R   0  0  0  0  0  1  0  0  0  0  0  0
   -5.8577   -0.0074    0.0000 N   0  0  0  0  0  0  0  0  0  0  0  0
   -5.9518   -1.5044    0.0000 R   0  0  0  0  0  1  0  0  0  0  0  0
   -4.5141    0.6596    0.0000 C   0  0  0  0  0  0  0  0  0  0  0  0
   -3.2647   -0.1705    0.0000 C   0  0  0  0  0  0  0  0  0  0  0  0
   -1.9212    0.4965    0.0000 C   0  0  0  0  0  0  0  0  0  0  0  0
   -0.6718   -0.3335    0.0000 C   0  0  0  0  0  0  0  0  0  0  0  0
    0.6718    0.3335    0.0000 C   0  0  0  0  0  0  0  0  0  0  0  0
    1.9212   -0.4965    0.0000 C   0  0  0  0  0  0  0  0  0  0  0  0
    3.2647    0.1705    0.0000 C   0  0  0  0  0  0  0  0  0  0  0  0
    4.5141   -0.6596    0.0000 C   0  0  0  0  0  0  0  0  0  0  0  0
    5.8577    0.0074    0.0000 C   0  0  0  0  0  0  0  0  0  0  0  0
    7.1071   -0.8226    0.0000 R   0  0  0  0  0  1  0  0  0  0  0  0
    5.9518    1.5044    0.0000 O   0  0  0  0  0  0  0  0  0  0  0  0
  1  2  1  0
  2  3  1  0
  2  4  1  0
  4  5  1  0
  5  6  1  0
  6  7  1  0
  7  8  1  0
  8  9  1  0
  9 10  1  0
 10 11  1  0
 11 12  1  0
 12 13  1  0
 12 14  2  0
M  ISO  3   1   1   3   3  13   2
M  END
>  <symbol>  (700) 
9Anac

>  <m_abbr>  (700) 
9Anac

>  <m_name>  (700) 
9-Aminononanoic acid linker

>  <m_type>  (700) 
linker

>  <m_subtype>  (700) 
linker

>  <m_Rgroups>  (700) 
[H],[OH],[H]

>  <m_chem_types>  (700) 
1:backbone_n,2:backbone_c,3:backbone_n_mod

>  <m_activation_policy>  (700) 
canonical-sites-v1

$$$$

     RDKit          2D

 15 14  0  0  0  0  0  0  0  0999 V2000
   -7.7942    0.6000    0.0000 R   0  0  0  0  0  1  0  0  0  0  0  0
   -6.4952   -0.1500    0.0000 N   0  0  0  0  0  0  0  0  0  0  0  0
   -6.4952   -1.6500    0.0000 R   0  0  0  0  0  1  0  0  0  0  0  0
   -5.1962    0.6000    0.0000 C   0  0  0  0  0  0  0  0  0  0  0  0
   -3.8971   -0.1500    0.0000 C   0  0  0  0  0  0  0  0  0  0  0  0
   -2.5981    0.6000    0.0000 C   0  0  0  0  0  0  0  0  0  0  0  0
   -1.2990   -0.1500    0.0000 C   0  0  0  0  0  0  0  0  0  0  0  0
   -0.0000    0.6000    0.0000 C   0  0  0  0  0  0  0  0  0  0  0  0
    1.2990   -0.1500    0.0000 C   0  0  0  0  0  0  0  0  0  0  0  0
    2.5981    0.6000    0.0000 C   0  0  0  0  0  0  0  0  0  0  0  0
    3.8971   -0.1500    0.0000 C   0  0  0  0  0  0  0  0  0  0  0  0
    5.1962    0.6000    0.0000 C   0  0  0  0  0  0  0  0  0  0  0  0
    6.4952   -0.1500    0.0000 C   0  0  0  0  0  0  0  0  0  0  0  0
    7.7942    0.6000    0.0000 R   0  0  0  0  0  1  0  0  0  0  0  0
    6.4952   -1.6500    0.0000 O   0  0  0  0  0  0  0  0  0  0  0  0
  1  2  1  0
  2  3  1  0
  2  4  1  0
  4  5  1  0
  5  6  1  0
  6  7  1  0
  7  8  1  0
  8  9  1  0
  9 10  1  0
 10 11  1  0
 11 12  1  0
 12 13  1  0
 13 14  1  0
 13 15  2  0
M  ISO  3   1   1   3   3  14   2
M  END
>  <symbol>  (701) 
10Adec

>  <m_abbr>  (701) 
10Adec

>  <m_name>  (701) 
10-Aminodecanoic acid linker

>  <m_type>  (701) 
linker

>  <m_subtype>  (701) 
linker

>  <m_Rgroups>  (701) 
[H],[OH],[H]

>  <m_chem_types>  (701) 
1:backbone_n,2:backbone_c,3:backbone_n_mod

>  <m_activation_policy>  (701) 
canonical-sites-v1

$$$$

     RDKit          2D

 17 16  0  0  0  0  0  0  0  0999 V2000
   -9.0933    0.5735    0.0000 R   0  0  0  0  0  1  0  0  0  0  0  0
   -7.7942   -0.1765    0.0000 N   0  0  0  0  0  0  0  0  0  0  0  0
   -7.7942   -1.6765    0.0000 R   0  0  0  0  0  1  0  0  0  0  0  0
   -6.4952    0.5735    0.0000 C   0  0  0  0  0  0  0  0  0  0  0  0
   -5.1962   -0.1765    0.0000 C   0  0  0  0  0  0  0  0  0  0  0  0
   -3.8971    0.5735    0.0000 C   0  0  0  0  0  0  0  0  0  0  0  0
   -2.5981   -0.1765    0.0000 C   0  0  0  0  0  0  0  0  0  0  0  0
   -1.2990    0.5735    0.0000 C   0  0  0  0  0  0  0  0  0  0  0  0
   -0.0000   -0.1765    0.0000 C   0  0  0  0  0  0  0  0  0  0  0  0
    1.2990    0.5735    0.0000 C   0  0  0  0  0  0  0  0  0  0  0  0
    2.5981   -0.1765    0.0000 C   0  0  0  0  0  0  0  0  0  0  0  0
    3.8971    0.5735    0.0000 C   0  0  0  0  0  0  0  0  0  0  0  0
    5.1962   -0.1765    0.0000 C   0  0  0  0  0  0  0  0  0  0  0  0
    6.4952    0.5735    0.0000 C   0  0  0  0  0  0  0  0  0  0  0  0
    7.7942   -0.1765    0.0000 C   0  0  0  0  0  0  0  0  0  0  0  0
    9.0933    0.5735    0.0000 R   0  0  0  0  0  1  0  0  0  0  0  0
    7.7942   -1.6765    0.0000 O   0  0  0  0  0  0  0  0  0  0  0  0
  1  2  1  0
  2  3  1  0
  2  4  1  0
  4  5  1  0
  5  6  1  0
  6  7  1  0
  7  8  1  0
  8  9  1  0
  9 10  1  0
 10 11  1  0
 11 12  1  0
 12 13  1  0
 13 14  1  0
 14 15  1  0
 15 16  1  0
 15 17  2  0
M  ISO  3   1   1   3   3  16   2
M  END
>  <symbol>  (702) 
12Adod

>  <m_abbr>  (702) 
12Adod

>  <m_name>  (702) 
12-Aminododecanoic acid linker

>  <m_type>  (702) 
linker

>  <m_subtype>  (702) 
linker

>  <m_Rgroups>  (702) 
[H],[OH],[H]

>  <m_chem_types>  (702) 
1:backbone_n,2:backbone_c,3:backbone_n_mod

>  <m_activation_policy>  (702) 
canonical-sites-v1

$$$$

     RDKit          2D

 28 27  0  0  0  0  0  0  0  0999 V2000
  -16.2292    0.6527    0.0000 R   0  0  0  0  0  1  0  0  0  0  0  0
  -14.9432   -0.1194    0.0000 N   0  0  0  0  0  0  0  0  0  0  0  0
  -14.9688   -1.6192    0.0000 R   0  0  0  0  0  1  0  0  0  0  0  0
  -13.6315    0.6083    0.0000 C   0  0  0  0  0  0  0  0  0  0  0  0
  -12.3455   -0.1639    0.0000 C   0  0  0  0  0  0  0  0  0  0  0  0
  -11.0338    0.5638    0.0000 O   0  0  0  0  0  0  0  0  0  0  0  0
   -9.7478   -0.2083    0.0000 C   0  0  0  0  0  0  0  0  0  0  0  0
   -8.4361    0.5194    0.0000 C   0  0  0  0  0  0  0  0  0  0  0  0
   -7.1501   -0.2527    0.0000 O   0  0  0  0  0  0  0  0  0  0  0  0
   -5.8384    0.4749    0.0000 C   0  0  0  0  0  0  0  0  0  0  0  0
   -4.5524   -0.2972    0.0000 C   0  0  0  0  0  0  0  0  0  0  0  0
   -3.2407    0.4305    0.0000 O   0  0  0  0  0  0  0  0  0  0  0  0
   -1.9547   -0.3416    0.0000 C   0  0  0  0  0  0  0  0  0  0  0  0
   -0.6430    0.3861    0.0000 C   0  0  0  0  0  0  0  0  0  0  0  0
    0.6430   -0.3861    0.0000 O   0  0  0  0  0  0  0  0  0  0  0  0
    1.9547    0.3416    0.0000 C   0  0  0  0  0  0  0  0  0  0  0  0
    3.2407   -0.4305    0.0000 C   0  0  0  0  0  0  0  0  0  0  0  0
    4.5524    0.2972    0.0000 O   0  0  0  0  0  0  0  0  0  0  0  0
    5.8384   -0.4749    0.0000 C   0  0  0  0  0  0  0  0  0  0  0  0
    7.1501    0.2527    0.0000 C   0  0  0  0  0  0  0  0  0  0  0  0
    8.4361   -0.5194    0.0000 O   0  0  0  0  0  0  0  0  0  0  0  0
    9.7478    0.2083    0.0000 C   0  0  0  0  0  0  0  0  0  0  0  0
   11.0338   -0.5638    0.0000 C   0  0  0  0  0  0  0  0  0  0  0  0
   12.3455    0.1639    0.0000 O   0  0  0  0  0  0  0  0  0  0  0  0
   13.6315   -0.6083    0.0000 C   0  0  0  0  0  0  0  0  0  0  0  0
   14.9432    0.1194    0.0000 C   0  0  0  0  0  0  0  0  0  0  0  0
   16.2292   -0.6527    0.0000 R   0  0  0  0  0  1  0  0  0  0  0  0
   14.9688    1.6192    0.0000 O   0  0  0  0  0  0  0  0  0  0  0  0
  1  2  1  0
  2  3  1  0
  2  4  1  0
  4  5  1  0
  5  6  1  0
  6  7  1  0
  7  8  1  0
  8  9  1  0
  9 10  1  0
 10 11  1  0
 11 12  1  0
 12 13  1  0
 13 14  1  0
 14 15  1  0
 15 16  1  0
 16 17  1  0
 17 18  1  0
 18 19  1  0
 19 20  1  0
 20 21  1  0
 21 22  1  0
 22 23  1  0
 23 24  1  0
 24 25  1  0
 25 26  1  0
 26 27  1  0
 26 28  2  0
M  ISO  3   1   1   3   3  27   2
M  END
>  <symbol>  (703) 
OEG7

>  <m_abbr>  (703) 
OEG7

>  <m_name>  (703) 
7-unit PEG amino acid linker

>  <m_type>  (703) 
linker

>  <m_subtype>  (703) 
linker

>  <m_Rgroups>  (703) 
[H],[OH],[H]

>  <m_chem_types>  (703) 
1:backbone_n,2:backbone_c,3:backbone_n_mod

>  <m_activation_policy>  (703) 
canonical-sites-v1

$$$$

     RDKit          2D

 19 20  0  0  0  0  0  0  0  0999 V2000
   -4.2475   -1.6475    0.0000 R   0  0  0  0  0  1  0  0  0  0  0  0
   -2.8651   -1.0651    0.0000 N   0  0  0  0  0  0  0  0  0  0  0  0
   -1.6696   -1.9710    0.0000 C   0  0  0  0  0  0  0  0  0  0  0  0
   -2.6783    0.4232    0.0000 C   0  0  0  0  0  0  0  0  0  0  0  0
   -1.2960    1.0056    0.0000 C   0  0  0  0  0  0  0  0  0  0  0  0
   -0.1005    0.0997    0.0000 C   0  0  0  0  0  0  0  0  0  0  0  0
   -0.1307   -1.4000    0.0000 C   0  0  0  0  0  0  0  0  0  0  0  0
    1.2863   -1.8921    0.0000 N   0  0  0  0  0  0  0  0  0  0  0  0
    1.7210   -3.3278    0.0000 R   0  0  0  0  0  1  0  0  0  0  0  0
    2.1922   -0.6966    0.0000 C   0  0  0  0  0  0  0  0  0  0  0  0
    3.6868   -0.5699    0.0000 C   0  0  0  0  0  0  0  0  0  0  0  0
    4.3244    0.7879    0.0000 C   0  0  0  0  0  0  0  0  0  0  0  0
    5.8190    0.9146    0.0000 F   0  0  0  0  0  0  0  0  0  0  0  0
    3.4673    2.0189    0.0000 C   0  0  0  0  0  0  0  0  0  0  0  0
    1.9727    1.8922    0.0000 C   0  0  0  0  0  0  0  0  0  0  0  0
    1.3351    0.5344    0.0000 C   0  0  0  0  0  0  0  0  0  0  0  0
   -3.8739    1.3292    0.0000 C   0  0  0  0  0  0  0  0  0  0  0  0
   -5.2562    0.7468    0.0000 R   0  0  0  0  0  1  0  0  0  0  0  0
   -3.6871    2.8175    0.0000 O   0  0  0  0  0  0  0  0  0  0  0  0
  1  2  1  0
  2  3  1  0
  2  4  1  0
  4  5  1  6
  5  6  1  0
  6  7  2  0
  7  8  1  0
  8  9  1  0
  8 10  1  0
 10 11  1  0
 11 12  2  0
 12 13  1  0
 12 14  1  0
 14 15  2  0
 15 16  1  0
  4 17  1  0
 17 18  1  0
 17 19  2  0
 16  6  1  0
 16 10  2  0
M  ISO  3   1   1   9   4  18   2
M  END
>  <symbol>  (704) 
meTrp_5F

>  <m_abbr>  (704) 
meTrp_5F

>  <m_name>  (704) 
NMe-L-5-fluorotryptophan

>  <m_type>  (704) 
aa

>  <m_subtype>  (704) 
modified

>  <m_Rgroups>  (704) 
[H],[OH],None,[H]

>  <m_chem_types>  (704) 
1:backbone_n,2:backbone_c,4:aromatic_nh

>  <m_activation_policy>  (704) 
canonical-sites-v1

$$$$

     RDKit          2D

 19 20  0  0  0  0  0  0  0  0999 V2000
   -4.2475   -1.6475    0.0000 R   0  0  0  0  0  1  0  0  0  0  0  0
   -2.8651   -1.0651    0.0000 N   0  0  0  0  0  0  0  0  0  0  0  0
   -1.6696   -1.9710    0.0000 C   0  0  0  0  0  0  0  0  0  0  0  0
   -2.6783    0.4232    0.0000 C   0  0  0  0  0  0  0  0  0  0  0  0
   -1.2960    1.0056    0.0000 C   0  0  0  0  0  0  0  0  0  0  0  0
   -0.1005    0.0997    0.0000 C   0  0  0  0  0  0  0  0  0  0  0  0
   -0.1307   -1.4000    0.0000 C   0  0  0  0  0  0  0  0  0  0  0  0
    1.2863   -1.8921    0.0000 N   0  0  0  0  0  0  0  0  0  0  0  0
    1.7210   -3.3278    0.0000 R   0  0  0  0  0  1  0  0  0  0  0  0
    2.1922   -0.6966    0.0000 C   0  0  0  0  0  0  0  0  0  0  0  0
    3.6868   -0.5699    0.0000 C   0  0  0  0  0  0  0  0  0  0  0  0
    4.3244    0.7879    0.0000 C   0  0  0  0  0  0  0  0  0  0  0  0
    5.8190    0.9146    0.0000 C   0  0  0  0  0  0  0  0  0  0  0  0
    3.4673    2.0189    0.0000 C   0  0  0  0  0  0  0  0  0  0  0  0
    1.9727    1.8922    0.0000 C   0  0  0  0  0  0  0  0  0  0  0  0
    1.3351    0.5344    0.0000 C   0  0  0  0  0  0  0  0  0  0  0  0
   -3.8739    1.3292    0.0000 C   0  0  0  0  0  0  0  0  0  0  0  0
   -5.2562    0.7468    0.0000 R   0  0  0  0  0  1  0  0  0  0  0  0
   -3.6871    2.8175    0.0000 O   0  0  0  0  0  0  0  0  0  0  0  0
  1  2  1  0
  2  3  1  0
  2  4  1  0
  4  5  1  6
  5  6  1  0
  6  7  2  0
  7  8  1  0
  8  9  1  0
  8 10  1  0
 10 11  1  0
 11 12  2  0
 12 13  1  0
 12 14  1  0
 14 15  2  0
 15 16  1  0
  4 17  1  0
 17 18  1  0
 17 19  2  0
 16  6  1  0
 16 10  2  0
M  ISO  3   1   1   9   4  18   2
M  END
>  <symbol>  (705) 
meTrp_5Me

>  <m_abbr>  (705) 
meTrp_5Me

>  <m_name>  (705) 
NMe-L-5-methyltryptophan

>  <m_type>  (705) 
aa

>  <m_subtype>  (705) 
modified

>  <m_Rgroups>  (705) 
[H],[OH],None,[H]

>  <m_chem_types>  (705) 
1:backbone_n,2:backbone_c,4:aromatic_nh

>  <m_activation_policy>  (705) 
canonical-sites-v1

$$$$

     RDKit          2D

 18 19  0  0  0  0  0  0  0  0999 V2000
   -3.8349   -1.8005    0.0000 R   0  0  0  0  0  1  0  0  0  0  0  0
   -2.4851   -1.1463    0.0000 N   0  0  0  0  0  0  0  0  0  0  0  0
   -1.2436   -1.9882    0.0000 C   0  0  0  0  0  0  0  0  0  0  0  0
   -2.3767    0.3497    0.0000 C   0  0  0  0  0  0  0  0  0  0  0  0
   -1.0269    1.0039    0.0000 C   0  0  0  0  0  0  0  0  0  0  0  0
    0.2146    0.1620    0.0000 C   0  0  0  0  0  0  0  0  0  0  0  0
    0.2632   -1.3372    0.0000 C   0  0  0  0  0  0  0  0  0  0  0  0
    1.7040   -1.7543    0.0000 N   0  0  0  0  0  0  0  0  0  0  0  0
    2.2135   -3.1651    0.0000 R   0  0  0  0  0  1  0  0  0  0  0  0
    2.5459   -0.5128    0.0000 C   0  0  0  0  0  0  0  0  0  0  0  0
    4.0318   -0.3078    0.0000 N   0  0  0  0  0  0  0  0  0  0  0  0
    4.5972    1.0816    0.0000 C   0  0  0  0  0  0  0  0  0  0  0  0
    3.6767    2.2659    0.0000 C   0  0  0  0  0  0  0  0  0  0  0  0
    2.1908    2.0609    0.0000 C   0  0  0  0  0  0  0  0  0  0  0  0
    1.6254    0.6715    0.0000 C   0  0  0  0  0  0  0  0  0  0  0  0
   -3.6182    1.1916    0.0000 C   0  0  0  0  0  0  0  0  0  0  0  0
   -4.9680    0.5375    0.0000 R   0  0  0  0  0  1  0  0  0  0  0  0
   -3.5098    2.6877    0.0000 O   0  0  0  0  0  0  0  0  0  0  0  0
  1  2  1  0
  2  3  1  0
  2  4  1  0
  4  5  1  6
  5  6  1  0
  6  7  2  0
  7  8  1  0
  8  9  1  0
  8 10  1  0
 10 11  2  0
 11 12  1  0
 12 13  2  0
 13 14  1  0
 14 15  2  0
  4 16  1  0
 16 17  1  0
 16 18  2  0
 15  6  1  0
 15 10  1  0
M  ISO  3   1   1   9   4  17   2
M  END
>  <symbol>  (706) 
meTrp_7Aza

>  <m_abbr>  (706) 
meTrp_7Aza

>  <m_name>  (706) 
NMe-L-7-azatryptophan

>  <m_type>  (706) 
aa

>  <m_subtype>  (706) 
modified

>  <m_Rgroups>  (706) 
[H],[OH],None,[H]

>  <m_chem_types>  (706) 
1:backbone_n,2:backbone_c,4:aromatic_nh

>  <m_activation_policy>  (706) 
canonical-sites-v1

$$$$

     RDKit          2D

 18 19  0  0  0  0  0  0  0  0999 V2000
   -3.8349   -1.8005    0.0000 R   0  0  0  0  0  1  0  0  0  0  0  0
   -2.4851   -1.1463    0.0000 N   0  0  0  0  0  0  0  0  0  0  0  0
   -1.2436   -1.9882    0.0000 C   0  0  0  0  0  0  0  0  0  0  0  0
   -2.3767    0.3497    0.0000 C   0  0  0  0  0  0  0  0  0  0  0  0
   -1.0269    1.0039    0.0000 C   0  0  0  0  0  0  0  0  0  0  0  0
    0.2146    0.1620    0.0000 C   0  0  0  0  0  0  0  0  0  0  0  0
    0.2632   -1.3372    0.0000 C   0  0  0  0  0  0  0  0  0  0  0  0
    1.7040   -1.7543    0.0000 N   0  0  0  0  0  0  0  0  0  0  0  0
    2.2135   -3.1651    0.0000 R   0  0  0  0  0  1  0  0  0  0  0  0
    2.5459   -0.5128    0.0000 C   0  0  0  0  0  0  0  0  0  0  0  0
    4.0318   -0.3078    0.0000 C   0  0  0  0  0  0  0  0  0  0  0  0
    4.5972    1.0816    0.0000 C   0  0  0  0  0  0  0  0  0  0  0  0
    3.6767    2.2659    0.0000 C   0  0  0  0  0  0  0  0  0  0  0  0
    2.1908    2.0609    0.0000 C   0  0  0  0  0  0  0  0  0  0  0  0
    1.6254    0.6715    0.0000 C   0  0  0  0  0  0  0  0  0  0  0  0
   -3.6182    1.1916    0.0000 C   0  0  0  0  0  0  0  0  0  0  0  0
   -4.9680    0.5375    0.0000 R   0  0  0  0  0  1  0  0  0  0  0  0
   -3.5098    2.6877    0.0000 O   0  0  0  0  0  0  0  0  0  0  0  0
  1  2  1  0
  2  3  1  0
  2  4  1  0
  4  5  1  1
  5  6  1  0
  6  7  2  0
  7  8  1  0
  8  9  1  0
  8 10  1  0
 10 11  2  0
 11 12  1  0
 12 13  2  0
 13 14  1  0
 14 15  2  0
  4 16  1  0
 16 17  1  0
 16 18  2  0
 15  6  1  0
 15 10  1  0
M  ISO  3   1   1   9   4  17   2
M  END
>  <symbol>  (707) 
D_meW

>  <m_abbr>  (707) 
D_meW

>  <m_name>  (707) 
NMe-D-tryptophan

>  <m_type>  (707) 
aa

>  <m_subtype>  (707) 
modified

>  <m_Rgroups>  (707) 
[H],[OH],None,[H]

>  <m_chem_types>  (707) 
1:backbone_n,2:backbone_c,4:aromatic_nh

>  <m_activation_policy>  (707) 
canonical-sites-v1

$$$$

     RDKit          2D

 19 20  0  0  0  0  0  0  0  0999 V2000
   -4.7073    1.3659    0.0000 R   0  0  0  0  0  1  0  0  0  0  0  0
   -3.2073    1.3652    0.0000 N   0  0  0  0  0  0  0  0  0  0  0  0
   -2.4567    2.6640    0.0000 R   0  0  0  0  0  1  0  0  0  0  0  0
   -2.4579    0.0659    0.0000 C   0  0  0  0  0  0  0  0  0  0  0  0
   -3.7572   -0.6836    0.0000 C   0  0  0  0  0  0  0  0  0  0  0  0
   -1.1585    0.8153    0.0000 C   0  0  0  0  0  0  0  0  0  0  0  0
    0.1402    0.0648    0.0000 C   0  0  0  0  0  0  0  0  0  0  0  0
    0.2964   -1.4271    0.0000 C   0  0  0  0  0  0  0  0  0  0  0  0
    1.7635   -1.7396    0.0000 N   0  0  0  0  0  0  0  0  0  0  0  0
    2.3730   -3.1102    0.0000 R   0  0  0  0  0  1  0  0  0  0  0  0
    2.5140   -0.4409    0.0000 C   0  0  0  0  0  0  0  0  0  0  0  0
    3.9814   -0.1296    0.0000 C   0  0  0  0  0  0  0  0  0  0  0  0
    4.4455    1.2967    0.0000 C   0  0  0  0  0  0  0  0  0  0  0  0
    3.4423    2.4119    0.0000 C   0  0  0  0  0  0  0  0  0  0  0  0
    1.9749    2.1007    0.0000 C   0  0  0  0  0  0  0  0  0  0  0  0
    1.5108    0.6743    0.0000 C   0  0  0  0  0  0  0  0  0  0  0  0
   -1.7084   -1.2335    0.0000 C   0  0  0  0  0  0  0  0  0  0  0  0
   -0.5297   -1.5280    0.0000 R   0  0  0  0  0  1  0  0  0  0  0  0
   -2.4590   -2.5322    0.0000 O   0  0  0  0  0  0  0  0  0  0  0  0
  1  2  1  0
  2  3  1  0
  2  4  1  0
  4  5  1  1
  4  6  1  0
  6  7  1  0
  7  8  2  0
  8  9  1  0
  9 10  1  0
  9 11  1  0
 11 12  2  0
 12 13  1  0
 13 14  2  0
 14 15  1  0
 15 16  2  0
  4 17  1  0
 17 18  1  0
 17 19  2  0
 16  7  1  0
 16 11  1  0
M  ISO  4   1   1   3   3  10   4  18   2
M  END
>  <symbol>  (708) 
D_aMeTrp

>  <m_abbr>  (708) 
D_aMeTrp

>  <m_name>  (708) 
D-alpha-methyltryptophan (R)

>  <m_type>  (708) 
aa

>  <m_subtype>  (708) 
modified

>  <m_Rgroups>  (708) 
[H],[OH],[H],[H]

>  <m_chem_types>  (708) 
1:backbone_n,2:backbone_c,3:backbone_n_mod,4:aromatic_nh

>  <m_activation_policy>  (708) 
canonical-sites-v1

$$$$

     RDKit          2D

 20 21  0  0  0  0  0  0  0  0999 V2000
   -3.8597   -1.4950    0.0000 R   0  0  0  0  0  1  0  0  0  0  0  0
   -2.4689   -0.9332    0.0000 N   0  0  0  0  0  0  0  0  0  0  0  0
   -1.2870   -1.8568    0.0000 R   0  0  0  0  0  1  0  0  0  0  0  0
   -2.2600    0.5522    0.0000 C   0  0  0  0  0  0  0  0  0  0  0  0
   -3.4420    1.4758    0.0000 C   0  0  0  0  0  0  0  0  0  0  0  0
   -4.8328    0.9140    0.0000 C   0  0  0  0  0  0  0  0  0  0  0  0
   -6.0147    1.8376    0.0000 R   0  0  0  0  0  1  0  0  0  0  0  0
   -5.0417   -0.5714    0.0000 O   0  0  0  0  0  0  0  0  0  0  0  0
   -0.8692    1.1140    0.0000 C   0  0  0  0  0  0  0  0  0  0  0  0
    0.3128    0.1904    0.0000 C   0  0  0  0  0  0  0  0  0  0  0  0
    0.2603   -1.3087    0.0000 C   0  0  0  0  0  0  0  0  0  0  0  0
    1.6698   -1.8218    0.0000 N   0  0  0  0  0  0  0  0  0  0  0  0
    2.0831   -3.2638    0.0000 R   0  0  0  0  0  1  0  0  0  0  0  0
    2.5934   -0.6399    0.0000 C   0  0  0  0  0  0  0  0  0  0  0  0
    4.0897   -0.5354    0.0000 C   0  0  0  0  0  0  0  0  0  0  0  0
    4.7474    0.8128    0.0000 C   0  0  0  0  0  0  0  0  0  0  0  0
    6.2437    0.9173    0.0000 F   0  0  0  0  0  0  0  0  0  0  0  0
    3.9087    2.0564    0.0000 C   0  0  0  0  0  0  0  0  0  0  0  0
    2.4123    1.9519    0.0000 C   0  0  0  0  0  0  0  0  0  0  0  0
    1.7547    0.6037    0.0000 C   0  0  0  0  0  0  0  0  0  0  0  0
  1  2  1  0
  2  3  1  0
  2  4  1  0
  4  5  1  6
  5  6  1  0
  6  7  1  0
  6  8  2  0
  4  9  1  0
  9 10  1  0
 10 11  2  0
 11 12  1  0
 12 13  1  0
 12 14  1  0
 14 15  1  0
 15 16  2  0
 16 17  1  0
 16 18  1  0
 18 19  2  0
 19 20  1  0
 20 10  1  0
 20 14  2  0
M  ISO  4   1   1   3   3   7   2  13   4
M  END
>  <symbol>  (709) 
b3hTrp_5F

>  <m_abbr>  (709) 
b3hTrp_5F

>  <m_name>  (709) 
beta3-Homo-5-fluorotryptophan (L)

>  <m_type>  (709) 
aa

>  <m_subtype>  (709) 
modified

>  <m_Rgroups>  (709) 
[H],[OH],[H],[H]

>  <m_chem_types>  (709) 
1:backbone_n,2:backbone_c,3:backbone_n_mod,4:aromatic_nh

>  <m_activation_policy>  (709) 
canonical-sites-v1

$$$$

     RDKit          2D

 11 10  0  0  0  0  0  0  0  0999 V2000
   -2.0616   -1.9640    0.0000 R   0  0  0  0  0  1  0  0  0  0  0  0
   -0.6443   -1.4730    0.0000 N   0  0  0  0  0  0  0  0  0  0  0  0
    0.4896   -2.4550    0.0000 C   0  0  0  0  0  0  0  0  0  0  0  0
   -0.3608    0.0000    0.0000 C   0  0  0  0  0  0  0  0  0  0  0  0
   -1.4947    0.9820    0.0000 C   0  0  0  0  0  0  0  0  0  0  0  0
   -1.2112    2.4550    0.0000 R   0  0  0  0  0  1  0  0  0  0  0  0
   -2.9120    0.4910    0.0000 O   0  0  0  0  0  0  0  0  0  0  0  0
    1.0566    0.4910    0.0000 C   0  0  0  0  0  0  0  0  0  0  0  0
    1.3401    1.9640    0.0000 C   0  0  0  0  0  0  0  0  0  0  0  0
    2.1905   -0.4910    0.0000 O   0  0  0  0  0  0  0  0  0  0  0  0
    3.6078   -0.0000    0.0000 R   0  0  0  0  0  1  0  0  0  0  0  0
  1  2  1  0
  2  3  1  0
  4  2  1  1
  4  5  1  0
  5  6  1  0
  5  7  2  0
  4  8  1  0
  8  9  1  6
  8 10  1  0
 10 11  1  0
M  ISO  3   1   1   6   2  11   4
M  END
>  <symbol>  (710) 
D_meT

>  <m_abbr>  (710) 
D_meT

>  <m_name>  (710) 
NMe-D-threonine

>  <m_type>  (710) 
aa

>  <m_subtype>  (710) 
modified

>  <m_Rgroups>  (710) 
[H],[OH],None,[H]

>  <m_chem_types>  (710) 
1:backbone_n,2:backbone_c,4:hydroxyl

>  <m_activation_policy>  (710) 
canonical-sites-v1

$$$$

     RDKit          2D

 11 10  0  0  0  0  0  0  0  0999 V2000
   -3.3018   -0.2248    0.0000 R   0  0  0  0  0  1  0  0  0  0  0  0
   -1.9832   -0.9398    0.0000 N   0  0  0  0  0  0  0  0  0  0  0  0
   -1.9430   -2.4392    0.0000 C   0  0  0  0  0  0  0  0  0  0  0  0
   -0.7047   -0.1553    0.0000 C   0  0  0  0  0  0  0  0  0  0  0  0
    0.6140   -0.8702    0.0000 C   0  0  0  0  0  0  0  0  0  0  0  0
    1.8925   -0.0858    0.0000 C   0  0  0  0  0  0  0  0  0  0  0  0
    3.2111   -0.8007    0.0000 S   0  0  0  0  0  0  0  0  0  0  0  0
    4.4896   -0.0162    0.0000 C   0  0  0  0  0  0  0  0  0  0  0  0
   -0.7448    1.3442    0.0000 C   0  0  0  0  0  0  0  0  0  0  0  0
    0.5337    2.1287    0.0000 R   0  0  0  0  0  1  0  0  0  0  0  0
   -2.0634    2.0592    0.0000 O   0  0  0  0  0  0  0  0  0  0  0  0
  1  2  1  0
  2  3  1  0
  2  4  1  0
  4  5  1  1
  5  6  1  0
  6  7  1  0
  7  8  1  0
  4  9  1  0
  9 10  1  0
  9 11  2  0
M  ISO  2   1   1  10   2
M  END
>  <symbol>  (711) 
D_meM

>  <m_abbr>  (711) 
D_meM

>  <m_name>  (711) 
NMe-D-methionine

>  <m_type>  (711) 
aa

>  <m_subtype>  (711) 
modified

>  <m_Rgroups>  (711) 
[H],[OH]

>  <m_chem_types>  (711) 
1:backbone_n,2:backbone_c

>  <m_activation_policy>  (711) 
canonical-sites-v1

$$$$

     RDKit          2D

 10  9  0  0  0  0  0  0  0  0999 V2000
   -1.5052    2.4340    0.0000 R   0  0  0  0  0  1  0  0  0  0  0  0
   -1.5385    0.9344    0.0000 N   0  0  0  0  0  0  0  0  0  0  0  0
   -2.8539    0.2134    0.0000 C   0  0  0  0  0  0  0  0  0  0  0  0
   -0.2564    0.1557    0.0000 C   0  0  0  0  0  0  0  0  0  0  0  0
    1.0589    0.8767    0.0000 C   0  0  0  0  0  0  0  0  0  0  0  0
    2.3410    0.0981    0.0000 S   0  0  0  0  0  0  0  0  0  0  0  0
    3.6564    0.8191    0.0000 R   0  0  0  0  0  1  0  0  0  0  0  0
   -0.2897   -1.3439    0.0000 C   0  0  0  0  0  0  0  0  0  0  0  0
    0.9924   -2.1225    0.0000 R   0  0  0  0  0  1  0  0  0  0  0  0
   -1.6051   -2.0649    0.0000 O   0  0  0  0  0  0  0  0  0  0  0  0
  1  2  1  0
  2  3  1  0
  2  4  1  0
  4  5  1  6
  5  6  1  0
  6  7  1  0
  4  8  1  0
  8  9  1  0
  8 10  2  0
M  ISO  3   1   1   7   4   9   2
M  END
>  <symbol>  (712) 
D_meC

>  <m_abbr>  (712) 
D_meC

>  <m_name>  (712) 
NMe-D-cysteine

>  <m_type>  (712) 
aa

>  <m_subtype>  (712) 
modified

>  <m_Rgroups>  (712) 
[H],[OH],None,[H]

>  <m_chem_types>  (712) 
1:backbone_n,2:backbone_c,4:thiol

>  <m_activation_policy>  (712) 
canonical-sites-v1

$$$$

     RDKit          2D

 14 14  0  0  0  0  0  0  0  0999 V2000
   -2.5982    2.0750    0.0000 R   0  0  0  0  0  1  0  0  0  0  0  0
   -1.3182    1.2930    0.0000 N   0  0  0  0  0  0  0  0  0  0  0  0
   -0.0009    2.0105    0.0000 C   0  0  0  0  0  0  0  0  0  0  0  0
   -1.3555   -0.2066    0.0000 C   0  0  0  0  0  0  0  0  0  0  0  0
   -0.0755   -0.9886    0.0000 C   0  0  0  0  0  0  0  0  0  0  0  0
    1.2418   -0.2711    0.0000 C   0  0  0  0  0  0  0  0  0  0  0  0
    1.4356    1.2163    0.0000 C   0  0  0  0  0  0  0  0  0  0  0  0
    2.9102    1.4916    0.0000 N   0  0  0  0  0  0  0  0  0  0  0  0
    3.6276    0.1743    0.0000 C   0  0  0  0  0  0  0  0  0  0  0  0
    2.5966   -0.9151    0.0000 N   0  0  0  0  0  0  0  0  0  0  0  0
    2.8719   -2.3896    0.0000 R   0  0  0  0  0  1  0  0  0  0  0  0
   -2.6727   -0.9241    0.0000 C   0  0  0  0  0  0  0  0  0  0  0  0
   -3.9527   -0.1420    0.0000 R   0  0  0  0  0  1  0  0  0  0  0  0
   -2.7100   -2.4236    0.0000 O   0  0  0  0  0  0  0  0  0  0  0  0
  1  2  1  0
  2  3  1  0
  2  4  1  0
  4  5  1  6
  5  6  1  0
  6  7  2  0
  7  8  1  0
  8  9  2  0
  9 10  1  0
 10 11  1  0
  4 12  1  0
 12 13  1  0
 12 14  2  0
 10  6  1  0
M  ISO  3   1   1  11   4  13   2
M  END
>  <symbol>  (713) 
D_meH

>  <m_abbr>  (713) 
D_meH

>  <m_name>  (713) 
NMe-D-histidine

>  <m_type>  (713) 
aa

>  <m_subtype>  (713) 
modified

>  <m_Rgroups>  (713) 
[H],[OH],None,[H]

>  <m_chem_types>  (713) 
1:backbone_n,2:backbone_c,4:aromatic_nh

>  <m_activation_policy>  (713) 
canonical-sites-v1

$$$$

     RDKit          2D

 11 10  0  0  0  0  0  0  0  0999 V2000
   -3.0813    0.0866    0.0000 R   0  0  0  0  0  1  0  0  0  0  0  0
   -1.8784   -0.8095    0.0000 N   0  0  0  0  0  0  0  0  0  0  0  0
   -2.0531   -2.2993    0.0000 C   0  0  0  0  0  0  0  0  0  0  0  0
   -0.5009   -0.2159    0.0000 C   0  0  0  0  0  0  0  0  0  0  0  0
    0.7020   -1.1120    0.0000 C   0  0  0  0  0  0  0  0  0  0  0  0
    2.0795   -0.5184    0.0000 C   0  0  0  0  0  0  0  0  0  0  0  0
    3.2824   -1.4145    0.0000 R   0  0  0  0  0  1  0  0  0  0  0  0
    2.2541    0.9714    0.0000 O   0  0  0  0  0  0  0  0  0  0  0  0
   -0.3263    1.2739    0.0000 C   0  0  0  0  0  0  0  0  0  0  0  0
    1.0513    1.8676    0.0000 R   0  0  0  0  0  1  0  0  0  0  0  0
   -1.5291    2.1701    0.0000 O   0  0  0  0  0  0  0  0  0  0  0  0
  1  2  1  0
  2  3  1  0
  2  4  1  0
  4  5  1  1
  5  6  1  0
  6  7  1  0
  6  8  2  0
  4  9  1  0
  9 10  1  0
  9 11  2  0
M  ISO  3   1   1   7   4  10   2
M  END
>  <symbol>  (714) 
D_meD

>  <m_abbr>  (714) 
D_meD

>  <m_name>  (714) 
NMe-D-aspartate

>  <m_type>  (714) 
aa

>  <m_subtype>  (714) 
modified

>  <m_Rgroups>  (714) 
[H],[OH],None,[OH]

>  <m_chem_types>  (714) 
1:backbone_n,2:backbone_c,4:carboxyl

>  <m_activation_policy>  (714) 
canonical-sites-v1

$$$$

     RDKit          2D

 12 11  0  0  0  0  0  0  0  0999 V2000
   -3.5281   -0.5638    0.0000 R   0  0  0  0  0  1  0  0  0  0  0  0
   -2.1179   -1.0748    0.0000 N   0  0  0  0  0  0  0  0  0  0  0  0
   -1.8553   -2.5517    0.0000 C   0  0  0  0  0  0  0  0  0  0  0  0
   -0.9702   -0.1090    0.0000 C   0  0  0  0  0  0  0  0  0  0  0  0
    0.4401   -0.6200    0.0000 C   0  0  0  0  0  0  0  0  0  0  0  0
    1.5878    0.3458    0.0000 C   0  0  0  0  0  0  0  0  0  0  0  0
    2.9981   -0.1653    0.0000 C   0  0  0  0  0  0  0  0  0  0  0  0
    4.1458    0.8005    0.0000 R   0  0  0  0  0  1  0  0  0  0  0  0
    3.2606   -1.6421    0.0000 O   0  0  0  0  0  0  0  0  0  0  0  0
   -1.2327    1.3678    0.0000 C   0  0  0  0  0  0  0  0  0  0  0  0
   -0.0850    2.3336    0.0000 R   0  0  0  0  0  1  0  0  0  0  0  0
   -2.6430    1.8789    0.0000 O   0  0  0  0  0  0  0  0  0  0  0  0
  1  2  1  0
  2  3  1  0
  2  4  1  0
  4  5  1  1
  5  6  1  0
  6  7  1  0
  7  8  1  0
  7  9  2  0
  4 10  1  0
 10 11  1  0
 10 12  2  0
M  ISO  3   1   1   8   4  11   2
M  END
>  <symbol>  (715) 
D_meE

>  <m_abbr>  (715) 
D_meE

>  <m_name>  (715) 
NMe-D-glutamate

>  <m_type>  (715) 
aa

>  <m_subtype>  (715) 
modified

>  <m_Rgroups>  (715) 
[H],[OH],None,[OH]

>  <m_chem_types>  (715) 
1:backbone_n,2:backbone_c,4:carboxyl

>  <m_activation_policy>  (715) 
canonical-sites-v1

$$$$

     RDKit          2D

 13 12  0  0  0  0  0  0  0  0999 V2000
   -3.6603   -0.5247    0.0000 R   0  0  0  0  0  1  0  0  0  0  0  0
   -2.2769   -1.1044    0.0000 N   0  0  0  0  0  0  0  0  0  0  0  0
   -2.0872   -2.5924    0.0000 C   0  0  0  0  0  0  0  0  0  0  0  0
   -1.0831   -0.1962    0.0000 C   0  0  0  0  0  0  0  0  0  0  0  0
    0.3004   -0.7759    0.0000 C   0  0  0  0  0  0  0  0  0  0  0  0
    1.4942    0.1323    0.0000 C   0  0  0  0  0  0  0  0  0  0  0  0
    1.3045    1.6202    0.0000 O   0  0  0  0  0  0  0  0  0  0  0  0
    2.8776   -0.4475    0.0000 N   0  0  0  0  0  0  0  0  0  0  0  0
    4.0714    0.4608    0.0000 R   0  0  0  0  0  1  0  0  0  0  0  0
    3.0672   -1.9354    0.0000 R   0  0  0  0  0  1  0  0  0  0  0  0
   -1.2727    1.2918    0.0000 C   0  0  0  0  0  0  0  0  0  0  0  0
   -0.0789    2.2000    0.0000 R   0  0  0  0  0  1  0  0  0  0  0  0
   -2.6562    1.8715    0.0000 O   0  0  0  0  0  0  0  0  0  0  0  0
  1  2  1  0
  2  3  1  0
  2  4  1  0
  4  5  1  1
  5  6  1  0
  6  7  2  0
  6  8  1  0
  8  9  1  0
  8 10  1  0
  4 11  1  0
 11 12  1  0
 11 13  2  0
M  ISO  4   1   1   9   4  10   5  12   2
M  END
>  <symbol>  (716) 
D_meN

>  <m_abbr>  (716) 
D_meN

>  <m_name>  (716) 
NMe-D-asparagine

>  <m_type>  (716) 
aa

>  <m_subtype>  (716) 
modified

>  <m_Rgroups>  (716) 
[H],[OH],None,[H],[H]

>  <m_chem_types>  (716) 
1:backbone_n,2:backbone_c,4:amide_nh,5:amide_nh

>  <m_activation_policy>  (716) 
canonical-sites-v1

$$$$

     RDKit          2D

 14 13  0  0  0  0  0  0  0  0999 V2000
   -4.2577   -0.3004    0.0000 R   0  0  0  0  0  1  0  0  0  0  0  0
   -2.9091   -0.9571    0.0000 N   0  0  0  0  0  0  0  0  0  0  0  0
   -2.8035   -2.4534    0.0000 C   0  0  0  0  0  0  0  0  0  0  0  0
   -1.6661   -0.1175    0.0000 C   0  0  0  0  0  0  0  0  0  0  0  0
   -0.3175   -0.7743    0.0000 C   0  0  0  0  0  0  0  0  0  0  0  0
    0.9256    0.0653    0.0000 C   0  0  0  0  0  0  0  0  0  0  0  0
    2.2742   -0.5914    0.0000 C   0  0  0  0  0  0  0  0  0  0  0  0
    2.3797   -2.0877    0.0000 O   0  0  0  0  0  0  0  0  0  0  0  0
    3.5172    0.2481    0.0000 N   0  0  0  0  0  0  0  0  0  0  0  0
    4.8658   -0.4086    0.0000 R   0  0  0  0  0  1  0  0  0  0  0  0
    3.4117    1.7444    0.0000 R   0  0  0  0  0  1  0  0  0  0  0  0
   -1.7716    1.3787    0.0000 C   0  0  0  0  0  0  0  0  0  0  0  0
   -0.5286    2.2183    0.0000 R   0  0  0  0  0  1  0  0  0  0  0  0
   -3.1202    2.0355    0.0000 O   0  0  0  0  0  0  0  0  0  0  0  0
  1  2  1  0
  2  3  1  0
  2  4  1  0
  4  5  1  1
  5  6  1  0
  6  7  1  0
  7  8  2  0
  7  9  1  0
  9 10  1  0
  9 11  1  0
  4 12  1  0
 12 13  1  0
 12 14  2  0
M  ISO  4   1   1  10   4  11   5  13   2
M  END
>  <symbol>  (717) 
D_meQ

>  <m_abbr>  (717) 
D_meQ

>  <m_name>  (717) 
NMe-D-glutamine

>  <m_type>  (717) 
aa

>  <m_subtype>  (717) 
modified

>  <m_Rgroups>  (717) 
[H],[OH],None,[H],[H]

>  <m_chem_types>  (717) 
1:backbone_n,2:backbone_c,4:amide_nh,5:amide_nh

>  <m_activation_policy>  (717) 
canonical-sites-v1

$$$$

     RDKit          2D

 14 13  0  0  0  0  0  0  0  0999 V2000
   -4.6155   -0.4823    0.0000 R   0  0  0  0  0  1  0  0  0  0  0  0
   -3.2318   -1.0614    0.0000 N   0  0  0  0  0  0  0  0  0  0  0  0
   -3.0416   -2.5493    0.0000 C   0  0  0  0  0  0  0  0  0  0  0  0
   -2.0384   -0.1527    0.0000 C   0  0  0  0  0  0  0  0  0  0  0  0
   -0.6548   -0.7318    0.0000 C   0  0  0  0  0  0  0  0  0  0  0  0
    0.5386    0.1769    0.0000 C   0  0  0  0  0  0  0  0  0  0  0  0
    1.9223   -0.4023    0.0000 C   0  0  0  0  0  0  0  0  0  0  0  0
    3.1157    0.5065    0.0000 C   0  0  0  0  0  0  0  0  0  0  0  0
    4.4994   -0.0727    0.0000 N   0  0  0  0  0  0  0  0  0  0  0  0
    5.6928    0.8361    0.0000 R   0  0  0  0  0  1  0  0  0  0  0  0
    4.6897   -1.5606    0.0000 R   0  0  0  0  0  1  0  0  0  0  0  0
   -2.2287    1.3352    0.0000 C   0  0  0  0  0  0  0  0  0  0  0  0
   -1.0353    2.2439    0.0000 R   0  0  0  0  0  1  0  0  0  0  0  0
   -3.6124    1.9144    0.0000 O   0  0  0  0  0  0  0  0  0  0  0  0
  1  2  1  0
  2  3  1  0
  2  4  1  0
  4  5  1  1
  5  6  1  0
  6  7  1  0
  7  8  1  0
  8  9  1  0
  9 10  1  0
  9 11  1  0
  4 12  1  0
 12 13  1  0
 12 14  2  0
M  ISO  4   1   1  10   4  11   5  13   2
M  END
>  <symbol>  (718) 
D_meK

>  <m_abbr>  (718) 
D_meK

>  <m_name>  (718) 
NMe-D-lysine

>  <m_type>  (718) 
aa

>  <m_subtype>  (718) 
modified

>  <m_Rgroups>  (718) 
[H],[OH],None,[H],[H]

>  <m_chem_types>  (718) 
1:backbone_n,2:backbone_c,4:amine_primary,5:amine_primary

>  <m_activation_policy>  (718) 
canonical-sites-v1

$$$$

     RDKit          2D

 14 14  0  0  0  0  0  0  0  0999 V2000
   -2.3413    2.2101    0.0000 R   0  0  0  0  0  1  0  0  0  0  0  0
   -1.1930    1.2450    0.0000 N   0  0  0  0  0  0  0  0  0  0  0  0
    0.2170    1.7569    0.0000 C   0  0  0  0  0  0  0  0  0  0  0  0
   -1.4546   -0.2320    0.0000 C   0  0  0  0  0  0  0  0  0  0  0  0
   -0.3063   -1.1971    0.0000 C   0  0  0  0  0  0  0  0  0  0  0  0
    1.1037   -0.6851    0.0000 C   0  0  0  0  0  0  0  0  0  0  0  0
    1.3653    0.7919    0.0000 C   0  0  0  0  0  0  0  0  0  0  0  0
    2.7752    1.3038    0.0000 C   0  0  0  0  0  0  0  0  0  0  0  0
    3.9235    0.3387    0.0000 C   0  0  0  0  0  0  0  0  0  0  0  0
    3.6619   -1.1383    0.0000 C   0  0  0  0  0  0  0  0  0  0  0  0
    2.2520   -1.6502    0.0000 C   0  0  0  0  0  0  0  0  0  0  0  0
   -2.8645   -0.7439    0.0000 C   0  0  0  0  0  0  0  0  0  0  0  0
   -4.0128    0.2211    0.0000 R   0  0  0  0  0  1  0  0  0  0  0  0
   -3.1261   -2.2209    0.0000 O   0  0  0  0  0  0  0  0  0  0  0  0
  1  2  1  0
  2  3  1  0
  2  4  1  0
  4  5  1  6
  5  6  1  0
  6  7  1  0
  7  8  1  0
  8  9  1  0
  9 10  1  0
 10 11  1  0
  4 12  1  0
 12 13  1  0
 12 14  2  0
 11  6  1  0
M  ISO  2   1   1  13   2
M  END
>  <symbol>  (719) 
D_meCha

>  <m_abbr>  (719) 
D_meCha

>  <m_name>  (719) 
NMe-D-cyclohexylalanine

>  <m_type>  (719) 
aa

>  <m_subtype>  (719) 
modified

>  <m_Rgroups>  (719) 
[H],[OH]

>  <m_chem_types>  (719) 
1:backbone_n,2:backbone_c

>  <m_activation_policy>  (719) 
canonical-sites-v1

$$$$

     RDKit          2D

 20 21  0  0  0  0  0  0  0  0999 V2000
   -4.0435    2.4376    0.0000 R   0  0  0  0  0  1  0  0  0  0  0  0
   -3.0535    1.3107    0.0000 N   0  0  0  0  0  0  0  0  0  0  0  0
   -1.5826    1.6046    0.0000 C   0  0  0  0  0  0  0  0  0  0  0  0
   -3.5344   -0.1101    0.0000 C   0  0  0  0  0  0  0  0  0  0  0  0
   -2.5445   -1.2370    0.0000 C   0  0  0  0  0  0  0  0  0  0  0  0
   -1.0735   -0.9431    0.0000 C   0  0  0  0  0  0  0  0  0  0  0  0
   -0.5926    0.4777    0.0000 C   0  0  0  0  0  0  0  0  0  0  0  0
    0.8783    0.7716    0.0000 C   0  0  0  0  0  0  0  0  0  0  0  0
    1.8683   -0.3553    0.0000 C   0  0  0  0  0  0  0  0  0  0  0  0
    3.3393   -0.0614    0.0000 C   0  0  0  0  0  0  0  0  0  0  0  0
    4.3292   -1.1883    0.0000 C   0  0  0  0  0  0  0  0  0  0  0  0
    5.8002   -0.8944    0.0000 C   0  0  0  0  0  0  0  0  0  0  0  0
    6.2811    0.5264    0.0000 C   0  0  0  0  0  0  0  0  0  0  0  0
    5.2911    1.6533    0.0000 C   0  0  0  0  0  0  0  0  0  0  0  0
    3.8202    1.3594    0.0000 C   0  0  0  0  0  0  0  0  0  0  0  0
    1.3874   -1.7761    0.0000 C   0  0  0  0  0  0  0  0  0  0  0  0
   -0.0835   -2.0700    0.0000 C   0  0  0  0  0  0  0  0  0  0  0  0
   -5.0054   -0.4040    0.0000 C   0  0  0  0  0  0  0  0  0  0  0  0
   -5.9954    0.7229    0.0000 R   0  0  0  0  0  1  0  0  0  0  0  0
   -5.4863   -1.8248    0.0000 O   0  0  0  0  0  0  0  0  0  0  0  0
  1  2  1  0
  2  3  1  0
  2  4  1  0
  4  5  1  6
  5  6  1  0
  6  7  1  0
  7  8  2  0
  8  9  1  0
  9 10  1  0
 10 11  2  0
 11 12  1  0
 12 13  2  0
 13 14  1  0
 14 15  2  0
  9 16  2  0
 16 17  1  0
  4 18  1  0
 18 19  1  0
 18 20  2  0
 17  6  2  0
 15 10  1  0
M  ISO  2   1   1  19   2
M  END
>  <symbol>  (720) 
D_meBip

>  <m_abbr>  (720) 
D_meBip

>  <m_name>  (720) 
NMe-D-biphenylalanine (4)

>  <m_type>  (720) 
aa

>  <m_subtype>  (720) 
modified

>  <m_Rgroups>  (720) 
[H],[OH]

>  <m_chem_types>  (720) 
1:backbone_n,2:backbone_c

>  <m_activation_policy>  (720) 
canonical-sites-v1

$$$$

     RDKit          2D

 18 19  0  0  0  0  0  0  0  0999 V2000
   -3.9967   -1.5786    0.0000 R   0  0  0  0  0  1  0  0  0  0  0  0
   -2.5756   -1.0986    0.0000 N   0  0  0  0  0  0  0  0  0  0  0  0
   -1.4493   -2.0892    0.0000 C   0  0  0  0  0  0  0  0  0  0  0  0
   -2.2807    0.3722    0.0000 C   0  0  0  0  0  0  0  0  0  0  0  0
   -0.8596    0.8522    0.0000 C   0  0  0  0  0  0  0  0  0  0  0  0
    0.2667   -0.1384    0.0000 C   0  0  0  0  0  0  0  0  0  0  0  0
   -0.0281   -1.6092    0.0000 C   0  0  0  0  0  0  0  0  0  0  0  0
    1.0981   -2.5999    0.0000 C   0  0  0  0  0  0  0  0  0  0  0  0
    2.5193   -2.1198    0.0000 C   0  0  0  0  0  0  0  0  0  0  0  0
    2.8141   -0.6491    0.0000 C   0  0  0  0  0  0  0  0  0  0  0  0
    4.2352   -0.1690    0.0000 C   0  0  0  0  0  0  0  0  0  0  0  0
    4.5300    1.3017    0.0000 C   0  0  0  0  0  0  0  0  0  0  0  0
    3.4037    2.2924    0.0000 C   0  0  0  0  0  0  0  0  0  0  0  0
    1.9826    1.8124    0.0000 C   0  0  0  0  0  0  0  0  0  0  0  0
    1.6878    0.3416    0.0000 C   0  0  0  0  0  0  0  0  0  0  0  0
   -3.4070    1.3629    0.0000 C   0  0  0  0  0  0  0  0  0  0  0  0
   -4.8281    0.8828    0.0000 R   0  0  0  0  0  1  0  0  0  0  0  0
   -3.1122    2.8336    0.0000 O   0  0  0  0  0  0  0  0  0  0  0  0
  1  2  1  0
  2  3  1  0
  2  4  1  0
  4  5  1  1
  5  6  1  0
  6  7  2  0
  7  8  1  0
  8  9  2  0
  9 10  1  0
 10 11  2  0
 11 12  1  0
 12 13  2  0
 13 14  1  0
 14 15  2  0
  4 16  1  0
 16 17  1  0
 16 18  2  0
 15  6  1  0
 15 10  1  0
M  ISO  2   1   1  17   2
M  END
>  <symbol>  (721) 
D_me1Nal

>  <m_abbr>  (721) 
D_me1Nal

>  <m_name>  (721) 
NMe-D-1-naphthylalanine

>  <m_type>  (721) 
aa

>  <m_subtype>  (721) 
modified

>  <m_Rgroups>  (721) 
[H],[OH]

>  <m_chem_types>  (721) 
1:backbone_n,2:backbone_c

>  <m_activation_policy>  (721) 
canonical-sites-v1

$$$$

     RDKit          2D

 18 19  0  0  0  0  0  0  0  0999 V2000
   -2.8410    2.4745    0.0000 R   0  0  0  0  0  1  0  0  0  0  0  0
   -1.9666    1.2557    0.0000 N   0  0  0  0  0  0  0  0  0  0  0  0
   -0.4739    1.4035    0.0000 C   0  0  0  0  0  0  0  0  0  0  0  0
   -2.5850   -0.1109    0.0000 C   0  0  0  0  0  0  0  0  0  0  0  0
   -1.7106   -1.3297    0.0000 C   0  0  0  0  0  0  0  0  0  0  0  0
   -0.2179   -1.1819    0.0000 C   0  0  0  0  0  0  0  0  0  0  0  0
    0.6564   -2.4007    0.0000 C   0  0  0  0  0  0  0  0  0  0  0  0
    2.1491   -2.2530    0.0000 C   0  0  0  0  0  0  0  0  0  0  0  0
    2.7675   -0.8863    0.0000 C   0  0  0  0  0  0  0  0  0  0  0  0
    4.2602   -0.7385    0.0000 C   0  0  0  0  0  0  0  0  0  0  0  0
    4.8785    0.6281    0.0000 C   0  0  0  0  0  0  0  0  0  0  0  0
    4.0042    1.8469    0.0000 C   0  0  0  0  0  0  0  0  0  0  0  0
    2.5115    1.6991    0.0000 C   0  0  0  0  0  0  0  0  0  0  0  0
    1.8931    0.3325    0.0000 C   0  0  0  0  0  0  0  0  0  0  0  0
    0.4004    0.1847    0.0000 C   0  0  0  0  0  0  0  0  0  0  0  0
   -4.0777   -0.2587    0.0000 C   0  0  0  0  0  0  0  0  0  0  0  0
   -4.9520    0.9601    0.0000 R   0  0  0  0  0  1  0  0  0  0  0  0
   -4.6960   -1.6253    0.0000 O   0  0  0  0  0  0  0  0  0  0  0  0
  1  2  1  0
  2  3  1  0
  2  4  1  0
  4  5  1  6
  5  6  1  0
  6  7  1  0
  7  8  2  0
  8  9  1  0
  9 10  2  0
 10 11  1  0
 11 12  2  0
 12 13  1  0
 13 14  2  0
 14 15  1  0
  4 16  1  0
 16 17  1  0
 16 18  2  0
 15  6  2  0
 14  9  1  0
M  ISO  2   1   1  17   2
M  END
>  <symbol>  (722) 
D_me2Nal

>  <m_abbr>  (722) 
D_me2Nal

>  <m_name>  (722) 
NMe-D-2-naphthylalanine

>  <m_type>  (722) 
aa

>  <m_subtype>  (722) 
modified

>  <m_Rgroups>  (722) 
[H],[OH]

>  <m_chem_types>  (722) 
1:backbone_n,2:backbone_c

>  <m_activation_policy>  (722) 
canonical-sites-v1

$$$$

     RDKit          2D

 13 13  0  0  0  0  0  0  0  0999 V2000
    3.1731    1.2990    0.0000 R   0  0  0  0  0  1  0  0  0  0  0  0
    1.6731    1.2990    0.0000 N   0  0  0  0  0  0  0  0  0  0  0  0
    0.9231    2.5981    0.0000 C   0  0  0  0  0  0  0  0  0  0  0  0
    0.9231    0.0000    0.0000 C   0  0  0  0  0  0  0  0  0  0  0  0
    1.6731   -1.2990    0.0000 C   0  0  0  0  0  0  0  0  0  0  0  0
    3.1731   -1.2990    0.0000 R   0  0  0  0  0  1  0  0  0  0  0  0
    0.9231   -2.5981    0.0000 O   0  0  0  0  0  0  0  0  0  0  0  0
   -0.5769   -0.0000    0.0000 C   0  0  0  0  0  0  0  0  0  0  0  0
   -1.3269   -1.2990    0.0000 C   0  0  0  0  0  0  0  0  0  0  0  0
   -2.8269   -1.2990    0.0000 C   0  0  0  0  0  0  0  0  0  0  0  0
   -3.5769    0.0000    0.0000 C   0  0  0  0  0  0  0  0  0  0  0  0
   -2.8269    1.2990    0.0000 C   0  0  0  0  0  0  0  0  0  0  0  0
   -1.3269    1.2990    0.0000 C   0  0  0  0  0  0  0  0  0  0  0  0
  1  2  1  0
  2  3  1  0
  4  2  1  1
  4  5  1  0
  5  6  1  0
  5  7  2  0
  4  8  1  0
  8  9  1  0
  9 10  1  0
 10 11  1  0
 11 12  1  0
 12 13  1  0
 13  8  1  0
M  ISO  2   1   1   6   2
M  END
>  <symbol>  (723) 
D_meChg

>  <m_abbr>  (723) 
D_meChg

>  <m_name>  (723) 
NMe-D-cyclohexylglycine

>  <m_type>  (723) 
aa

>  <m_subtype>  (723) 
modified

>  <m_Rgroups>  (723) 
[H],[OH]

>  <m_chem_types>  (723) 
1:backbone_n,2:backbone_c

>  <m_activation_policy>  (723) 
canonical-sites-v1

$$$$

     RDKit          2D

 21 22  0  0  0  0  0  0  0  0999 V2000
   -3.8219   -0.3542    0.0000 R   0  0  0  0  0  1  0  0  0  0  0  0
   -2.3389   -0.1296    0.0000 N   0  0  0  0  0  0  0  0  0  0  0  0
   -2.0069   -0.8544    0.0000 C   0  0  0  0  0  0  0  0  0  0  0  0
   -1.7918    1.2671    0.0000 C   0  0  0  0  0  0  0  0  0  0  0  0
   -0.3087    1.4917    0.0000 C   0  0  0  0  0  0  0  0  0  0  0  0
    0.6273    0.3196    0.0000 C   0  0  0  0  0  0  0  0  0  0  0  0
    2.1104    0.5442    0.0000 C   0  0  0  0  0  0  0  0  0  0  0  0
    3.0465   -0.6279    0.0000 C   0  0  0  0  0  0  0  0  0  0  0  0
    4.5296   -0.4033    0.0000 C   0  0  0  0  0  0  0  0  0  0  0  0
    5.0766    0.9934    0.0000 C   0  0  0  0  0  0  0  0  0  0  0  0
    4.1405    2.1655    0.0000 C   0  0  0  0  0  0  0  0  0  0  0  0
    2.6575    1.9409    0.0000 C   0  0  0  0  0  0  0  0  0  0  0  0
    0.0803   -1.0771    0.0000 C   0  0  0  0  0  0  0  0  0  0  0  0
   -1.4028   -1.3017    0.0000 C   0  0  0  0  0  0  0  0  0  0  0  0
   -1.9498   -2.6984    0.0000 C   0  0  0  0  0  0  0  0  0  0  0  0
   -1.0138   -3.8705    0.0000 C   0  0  0  0  0  0  0  0  0  0  0  0
    0.4693   -3.6459    0.0000 C   0  0  0  0  0  0  0  0  0  0  0  0
    1.0163   -2.2492    0.0000 C   0  0  0  0  0  0  0  0  0  0  0  0
   -2.7279    2.4392    0.0000 C   0  0  0  0  0  0  0  0  0  0  0  0
   -4.2110    2.2146    0.0000 R   0  0  0  0  0  1  0  0  0  0  0  0
   -2.1808    3.8359    0.0000 O   0  0  0  0  0  0  0  0  0  0  0  0
  1  2  1  0
  2  3  1  0
  2  4  1  0
  4  5  1  1
  5  6  1  0
  6  7  1  0
  7  8  2  0
  8  9  1  0
  9 10  2  0
 10 11  1  0
 11 12  2  0
  6 13  1  0
 13 14  2  0
 14 15  1  0
 15 16  2  0
 16 17  1  0
 17 18  2  0
  4 19  1  0
 19 20  1  0
 19 21  2  0
 12  7  1  0
 18 13  1  0
M  ISO  2   1   1  20   2
M  END
>  <symbol>  (724) 
D_meDip

>  <m_abbr>  (724) 
D_meDip

>  <m_name>  (724) 
NMe-D-diphenylalanine

>  <m_type>  (724) 
aa

>  <m_subtype>  (724) 
modified

>  <m_Rgroups>  (724) 
[H],[OH]

>  <m_chem_types>  (724) 
1:backbone_n,2:backbone_c

>  <m_activation_policy>  (724) 
canonical-sites-v1

$$$$

     RDKit          2D

 10  9  0  0  0  0  0  0  0  0999 V2000
   -2.8539   -0.2134    0.0000 R   0  0  0  0  0  1  0  0  0  0  0  0
   -1.5385   -0.9344    0.0000 N   0  0  0  0  0  0  0  0  0  0  0  0
   -1.5052   -2.4340    0.0000 C   0  0  0  0  0  0  0  0  0  0  0  0
   -0.2564   -0.1557    0.0000 C   0  0  0  0  0  0  0  0  0  0  0  0
    1.0589   -0.8767    0.0000 C   0  0  0  0  0  0  0  0  0  0  0  0
    2.3410   -0.0981    0.0000 C   0  0  0  0  0  0  0  0  0  0  0  0
    3.6564   -0.8191    0.0000 C   0  0  0  0  0  0  0  0  0  0  0  0
   -0.2897    1.3439    0.0000 C   0  0  0  0  0  0  0  0  0  0  0  0
    0.9924    2.1225    0.0000 R   0  0  0  0  0  1  0  0  0  0  0  0
   -1.6051    2.0649    0.0000 O   0  0  0  0  0  0  0  0  0  0  0  0
  1  2  1  0
  2  3  1  0
  2  4  1  0
  4  5  1  1
  5  6  1  0
  6  7  1  0
  4  8  1  0
  8  9  1  0
  8 10  2  0
M  ISO  2   1   1   9   2
M  END
>  <symbol>  (725) 
D_meNva

>  <m_abbr>  (725) 
D_meNva

>  <m_name>  (725) 
NMe-D-norvaline

>  <m_type>  (725) 
aa

>  <m_subtype>  (725) 
modified

>  <m_Rgroups>  (725) 
[H],[OH]

>  <m_chem_types>  (725) 
1:backbone_n,2:backbone_c

>  <m_activation_policy>  (725) 
canonical-sites-v1

$$$$

     RDKit          2D

  9  8  0  0  0  0  0  0  0  0999 V2000
   -2.2500    1.0104    0.0000 R   0  0  0  0  0  1  0  0  0  0  0  0
   -1.5000   -0.2887    0.0000 N   0  0  0  0  0  0  0  0  0  0  0  0
   -2.2500   -1.5877    0.0000 C   0  0  0  0  0  0  0  0  0  0  0  0
   -0.0000   -0.2887    0.0000 C   0  0  0  0  0  0  0  0  0  0  0  0
    0.7500   -1.5877    0.0000 C   0  0  0  0  0  0  0  0  0  0  0  0
    2.2500   -1.5877    0.0000 C   0  0  0  0  0  0  0  0  0  0  0  0
    0.7500    1.0104    0.0000 C   0  0  0  0  0  0  0  0  0  0  0  0
    2.2500    1.0104    0.0000 R   0  0  0  0  0  1  0  0  0  0  0  0
   -0.0000    2.3094    0.0000 O   0  0  0  0  0  0  0  0  0  0  0  0
  1  2  1  0
  2  3  1  0
  2  4  1  0
  4  5  1  1
  5  6  1  0
  4  7  1  0
  7  8  1  0
  7  9  2  0
M  ISO  2   1   1   8   2
M  END
>  <symbol>  (726) 
D_meAbu

>  <m_abbr>  (726) 
D_meAbu

>  <m_name>  (726) 
NMe-D-2-aminobutyric acid

>  <m_type>  (726) 
aa

>  <m_subtype>  (726) 
modified

>  <m_Rgroups>  (726) 
[H],[OH]

>  <m_chem_types>  (726) 
1:backbone_n,2:backbone_c

>  <m_activation_policy>  (726) 
canonical-sites-v1

$$$$

     RDKit          2D

 14 14  0  0  0  0  0  0  0  0999 V2000
   -2.3413    2.2101    0.0000 R   0  0  0  0  0  1  0  0  0  0  0  0
   -1.1930    1.2450    0.0000 N   0  0  0  0  0  0  0  0  0  0  0  0
    0.2170    1.7569    0.0000 C   0  0  0  0  0  0  0  0  0  0  0  0
   -1.4546   -0.2320    0.0000 C   0  0  0  0  0  0  0  0  0  0  0  0
   -0.3063   -1.1971    0.0000 C   0  0  0  0  0  0  0  0  0  0  0  0
    1.1037   -0.6851    0.0000 C   0  0  0  0  0  0  0  0  0  0  0  0
    1.3653    0.7919    0.0000 C   0  0  0  0  0  0  0  0  0  0  0  0
    2.7752    1.3038    0.0000 C   0  0  0  0  0  0  0  0  0  0  0  0
    3.9235    0.3387    0.0000 C   0  0  0  0  0  0  0  0  0  0  0  0
    3.6619   -1.1383    0.0000 N   0  0  0  0  0  0  0  0  0  0  0  0
    2.2520   -1.6502    0.0000 C   0  0  0  0  0  0  0  0  0  0  0  0
   -2.8645   -0.7439    0.0000 C   0  0  0  0  0  0  0  0  0  0  0  0
   -4.0128    0.2211    0.0000 R   0  0  0  0  0  1  0  0  0  0  0  0
   -3.1261   -2.2209    0.0000 O   0  0  0  0  0  0  0  0  0  0  0  0
  1  2  1  0
  2  3  1  0
  2  4  1  0
  4  5  1  6
  5  6  1  0
  6  7  2  0
  7  8  1  0
  8  9  2  0
  9 10  1  0
 10 11  2  0
  4 12  1  0
 12 13  1  0
 12 14  2  0
 11  6  1  0
M  ISO  2   1   1  13   2
M  END
>  <symbol>  (727) 
D_me3Pal

>  <m_abbr>  (727) 
D_me3Pal

>  <m_name>  (727) 
NMe-D-3-pyridylalanine

>  <m_type>  (727) 
aa

>  <m_subtype>  (727) 
modified

>  <m_Rgroups>  (727) 
[H],[OH]

>  <m_chem_types>  (727) 
1:backbone_n,2:backbone_c

>  <m_activation_policy>  (727) 
canonical-sites-v1

$$$$

     RDKit          2D

 14 14  0  0  0  0  0  0  0  0999 V2000
   -2.3413    2.2101    0.0000 R   0  0  0  0  0  1  0  0  0  0  0  0
   -1.1930    1.2450    0.0000 N   0  0  0  0  0  0  0  0  0  0  0  0
    0.2170    1.7569    0.0000 C   0  0  0  0  0  0  0  0  0  0  0  0
   -1.4546   -0.2320    0.0000 C   0  0  0  0  0  0  0  0  0  0  0  0
   -0.3063   -1.1971    0.0000 C   0  0  0  0  0  0  0  0  0  0  0  0
    1.1037   -0.6851    0.0000 C   0  0  0  0  0  0  0  0  0  0  0  0
    1.3653    0.7919    0.0000 C   0  0  0  0  0  0  0  0  0  0  0  0
    2.7752    1.3038    0.0000 C   0  0  0  0  0  0  0  0  0  0  0  0
    3.9235    0.3387    0.0000 N   0  0  0  0  0  0  0  0  0  0  0  0
    3.6619   -1.1383    0.0000 C   0  0  0  0  0  0  0  0  0  0  0  0
    2.2520   -1.6502    0.0000 C   0  0  0  0  0  0  0  0  0  0  0  0
   -2.8645   -0.7439    0.0000 C   0  0  0  0  0  0  0  0  0  0  0  0
   -4.0128    0.2211    0.0000 R   0  0  0  0  0  1  0  0  0  0  0  0
   -3.1261   -2.2209    0.0000 O   0  0  0  0  0  0  0  0  0  0  0  0
  1  2  1  0
  2  3  1  0
  2  4  1  0
  4  5  1  6
  5  6  1  0
  6  7  1  0
  7  8  2  0
  8  9  1  0
  9 10  2  0
 10 11  1  0
  4 12  1  0
 12 13  1  0
 12 14  2  0
 11  6  2  0
M  ISO  2   1   1  13   2
M  END
>  <symbol>  (728) 
D_me4Pal

>  <m_abbr>  (728) 
D_me4Pal

>  <m_name>  (728) 
NMe-D-4-pyridylalanine

>  <m_type>  (728) 
aa

>  <m_subtype>  (728) 
modified

>  <m_Rgroups>  (728) 
[H],[OH]

>  <m_chem_types>  (728) 
1:backbone_n,2:backbone_c

>  <m_activation_policy>  (728) 
canonical-sites-v1

$$$$

     RDKit          2D

 15 15  0  0  0  0  0  0  0  0999 V2000
   -2.9107    2.0342    0.0000 R   0  0  0  0  0  1  0  0  0  0  0  0
   -1.6606    1.2052    0.0000 N   0  0  0  0  0  0  0  0  0  0  0  0
   -0.3176    1.8733    0.0000 C   0  0  0  0  0  0  0  0  0  0  0  0
   -1.7535   -0.2919    0.0000 C   0  0  0  0  0  0  0  0  0  0  0  0
   -0.5034   -1.1210    0.0000 C   0  0  0  0  0  0  0  0  0  0  0  0
    0.8396   -0.4529    0.0000 C   0  0  0  0  0  0  0  0  0  0  0  0
    0.9325    1.0442    0.0000 C   0  0  0  0  0  0  0  0  0  0  0  0
    2.2755    1.7123    0.0000 C   0  0  0  0  0  0  0  0  0  0  0  0
    3.5256    0.8833    0.0000 C   0  0  0  0  0  0  0  0  0  0  0  0
    3.4327   -0.6138    0.0000 C   0  0  0  0  0  0  0  0  0  0  0  0
    4.6828   -1.4428    0.0000 F   0  0  0  0  0  0  0  0  0  0  0  0
    2.0897   -1.2819    0.0000 C   0  0  0  0  0  0  0  0  0  0  0  0
   -3.0965   -0.9600    0.0000 C   0  0  0  0  0  0  0  0  0  0  0  0
   -4.3466   -0.1310    0.0000 R   0  0  0  0  0  1  0  0  0  0  0  0
   -3.1894   -2.4572    0.0000 O   0  0  0  0  0  0  0  0  0  0  0  0
  1  2  1  0
  2  3  1  0
  2  4  1  0
  4  5  1  6
  5  6  1  0
  6  7  2  0
  7  8  1  0
  8  9  2  0
  9 10  1  0
 10 11  1  0
 10 12  2  0
  4 13  1  0
 13 14  1  0
 13 15  2  0
 12  6  1  0
M  ISO  2   1   1  14   2
M  END
>  <symbol>  (729) 
D_mePhe_3F

>  <m_abbr>  (729) 
D_mePhe_3F

>  <m_name>  (729) 
NMe-D-3-fluorophenylalanine

>  <m_type>  (729) 
aa

>  <m_subtype>  (729) 
modified

>  <m_Rgroups>  (729) 
[H],[OH]

>  <m_chem_types>  (729) 
1:backbone_n,2:backbone_c

>  <m_activation_policy>  (729) 
canonical-sites-v1

$$$$

     RDKit          2D

 16 16  0  0  0  0  0  0  0  0999 V2000
   -3.4567    1.7873    0.0000 R   0  0  0  0  0  1  0  0  0  0  0  0
   -2.1102    1.1263    0.0000 N   0  0  0  0  0  0  0  0  0  0  0  0
   -0.8645    1.9620    0.0000 C   0  0  0  0  0  0  0  0  0  0  0  0
   -2.0094   -0.3703    0.0000 C   0  0  0  0  0  0  0  0  0  0  0  0
   -0.6629   -1.0313    0.0000 C   0  0  0  0  0  0  0  0  0  0  0  0
    0.5828   -0.1956    0.0000 C   0  0  0  0  0  0  0  0  0  0  0  0
    0.4820    1.3010    0.0000 C   0  0  0  0  0  0  0  0  0  0  0  0
    1.7277    2.1366    0.0000 C   0  0  0  0  0  0  0  0  0  0  0  0
    3.0742    1.4756    0.0000 C   0  0  0  0  0  0  0  0  0  0  0  0
    3.1750   -0.0210    0.0000 C   0  0  0  0  0  0  0  0  0  0  0  0
    4.5215   -0.6820    0.0000 O   0  0  0  0  0  0  0  0  0  0  0  0
    4.6223   -2.1786    0.0000 C   0  0  0  0  0  0  0  0  0  0  0  0
    1.9293   -0.8566    0.0000 C   0  0  0  0  0  0  0  0  0  0  0  0
   -3.2551   -1.2059    0.0000 C   0  0  0  0  0  0  0  0  0  0  0  0
   -4.6016   -0.5449    0.0000 R   0  0  0  0  0  1  0  0  0  0  0  0
   -3.1543   -2.7025    0.0000 O   0  0  0  0  0  0  0  0  0  0  0  0
  1  2  1  0
  2  3  1  0
  2  4  1  0
  4  5  1  6
  5  6  1  0
  6  7  1  0
  7  8  2  0
  8  9  1  0
  9 10  2  0
 10 11  1  0
 11 12  1  0
 10 13  1  0
  4 14  1  0
 14 15  1  0
 14 16  2  0
 13  6  2  0
M  ISO  2   1   1  15   2
M  END
>  <symbol>  (730) 
D_mePhe_3OMe

>  <m_abbr>  (730) 
D_mePhe_3OMe

>  <m_name>  (730) 
NMe-D-3-methoxyphenylalanine

>  <m_type>  (730) 
aa

>  <m_subtype>  (730) 
modified

>  <m_Rgroups>  (730) 
[H],[OH]

>  <m_chem_types>  (730) 
1:backbone_n,2:backbone_c

>  <m_activation_policy>  (730) 
canonical-sites-v1

$$$$

     RDKit          2D

 15 15  0  0  0  0  0  0  0  0999 V2000
   -2.5933    2.2771    0.0000 R   0  0  0  0  0  1  0  0  0  0  0  0
   -1.4913    1.2594    0.0000 N   0  0  0  0  0  0  0  0  0  0  0  0
   -0.0590    1.7049    0.0000 C   0  0  0  0  0  0  0  0  0  0  0  0
   -1.8217   -0.2038    0.0000 C   0  0  0  0  0  0  0  0  0  0  0  0
   -0.7197   -1.2215    0.0000 C   0  0  0  0  0  0  0  0  0  0  0  0
    0.7126   -0.7760    0.0000 C   0  0  0  0  0  0  0  0  0  0  0  0
    1.0430    0.6872    0.0000 C   0  0  0  0  0  0  0  0  0  0  0  0
    2.4753    1.1326    0.0000 C   0  0  0  0  0  0  0  0  0  0  0  0
    3.5773    0.1149    0.0000 C   0  0  0  0  0  0  0  0  0  0  0  0
    5.0096    0.5604    0.0000 Br  0  0  0  0  0  0  0  0  0  0  0  0
    3.2469   -1.3482    0.0000 C   0  0  0  0  0  0  0  0  0  0  0  0
    1.8146   -1.7937    0.0000 C   0  0  0  0  0  0  0  0  0  0  0  0
   -3.2540   -0.6493    0.0000 C   0  0  0  0  0  0  0  0  0  0  0  0
   -4.3559    0.3684    0.0000 R   0  0  0  0  0  1  0  0  0  0  0  0
   -3.5844   -2.1124    0.0000 O   0  0  0  0  0  0  0  0  0  0  0  0
  1  2  1  0
  2  3  1  0
  2  4  1  0
  4  5  1  6
  5  6  1  0
  6  7  1  0
  7  8  2  0
  8  9  1  0
  9 10  1  0
  9 11  2  0
 11 12  1  0
  4 13  1  0
 13 14  1  0
 13 15  2  0
 12  6  2  0
M  ISO  2   1   1  14   2
M  END
>  <symbol>  (731) 
D_mePhe_4Br

>  <m_abbr>  (731) 
D_mePhe_4Br

>  <m_name>  (731) 
NMe-D-4-bromophenylalanine

>  <m_type>  (731) 
aa

>  <m_subtype>  (731) 
modified

>  <m_Rgroups>  (731) 
[H],[OH]

>  <m_chem_types>  (731) 
1:backbone_n,2:backbone_c

>  <m_activation_policy>  (731) 
canonical-sites-v1

$$$$

     RDKit          2D

 18 18  0  0  0  0  0  0  0  0999 V2000
   -3.3850    2.3467    0.0000 R   0  0  0  0  0  1  0  0  0  0  0  0
   -2.3401    1.2705    0.0000 N   0  0  0  0  0  0  0  0  0  0  0  0
   -0.8856    1.6374    0.0000 C   0  0  0  0  0  0  0  0  0  0  0  0
   -2.7496   -0.1725    0.0000 C   0  0  0  0  0  0  0  0  0  0  0  0
   -1.7047   -1.2487    0.0000 C   0  0  0  0  0  0  0  0  0  0  0  0
   -0.2503   -0.8818    0.0000 C   0  0  0  0  0  0  0  0  0  0  0  0
    0.1593    0.5612    0.0000 C   0  0  0  0  0  0  0  0  0  0  0  0
    1.6137    0.9280    0.0000 C   0  0  0  0  0  0  0  0  0  0  0  0
    2.6586   -0.1482    0.0000 C   0  0  0  0  0  0  0  0  0  0  0  0
    4.1131    0.2186    0.0000 C   0  0  0  0  0  0  0  0  0  0  0  0
    5.5675    0.5855    0.0000 F   0  0  0  0  0  0  0  0  0  0  0  0
    4.4799   -1.2358    0.0000 F   0  0  0  0  0  0  0  0  0  0  0  0
    3.7463    1.6731    0.0000 F   0  0  0  0  0  0  0  0  0  0  0  0
    2.2491   -1.5912    0.0000 C   0  0  0  0  0  0  0  0  0  0  0  0
    0.7946   -1.9580    0.0000 C   0  0  0  0  0  0  0  0  0  0  0  0
   -4.2041   -0.5393    0.0000 C   0  0  0  0  0  0  0  0  0  0  0  0
   -5.2490    0.5369    0.0000 R   0  0  0  0  0  1  0  0  0  0  0  0
   -4.6136   -1.9823    0.0000 O   0  0  0  0  0  0  0  0  0  0  0  0
  1  2  1  0
  2  3  1  0
  2  4  1  0
  4  5  1  6
  5  6  1  0
  6  7  1  0
  7  8  2  0
  8  9  1  0
  9 10  1  0
 10 11  1  0
 10 12  1  0
 10 13  1  0
  9 14  2  0
 14 15  1  0
  4 16  1  0
 16 17  1  0
 16 18  2  0
 15  6  2  0
M  ISO  2   1   1  17   2
M  END
>  <symbol>  (732) 
D_mePhe_4CF3

>  <m_abbr>  (732) 
D_mePhe_4CF3

>  <m_name>  (732) 
NMe-D-4-(trifluoromethyl)phenylalanine

>  <m_type>  (732) 
aa

>  <m_subtype>  (732) 
modified

>  <m_Rgroups>  (732) 
[H],[OH]

>  <m_chem_types>  (732) 
1:backbone_n,2:backbone_c

>  <m_activation_policy>  (732) 
canonical-sites-v1

$$$$

     RDKit          2D

 15 15  0  0  0  0  0  0  0  0999 V2000
   -2.5933    2.2771    0.0000 R   0  0  0  0  0  1  0  0  0  0  0  0
   -1.4913    1.2594    0.0000 N   0  0  0  0  0  0  0  0  0  0  0  0
   -0.0590    1.7049    0.0000 C   0  0  0  0  0  0  0  0  0  0  0  0
   -1.8217   -0.2038    0.0000 C   0  0  0  0  0  0  0  0  0  0  0  0
   -0.7197   -1.2215    0.0000 C   0  0  0  0  0  0  0  0  0  0  0  0
    0.7126   -0.7760    0.0000 C   0  0  0  0  0  0  0  0  0  0  0  0
    1.0430    0.6872    0.0000 C   0  0  0  0  0  0  0  0  0  0  0  0
    2.4753    1.1326    0.0000 C   0  0  0  0  0  0  0  0  0  0  0  0
    3.5773    0.1149    0.0000 C   0  0  0  0  0  0  0  0  0  0  0  0
    5.0096    0.5604    0.0000 Cl  0  0  0  0  0  0  0  0  0  0  0  0
    3.2469   -1.3482    0.0000 C   0  0  0  0  0  0  0  0  0  0  0  0
    1.8146   -1.7937    0.0000 C   0  0  0  0  0  0  0  0  0  0  0  0
   -3.2540   -0.6493    0.0000 C   0  0  0  0  0  0  0  0  0  0  0  0
   -4.3559    0.3684    0.0000 R   0  0  0  0  0  1  0  0  0  0  0  0
   -3.5844   -2.1124    0.0000 O   0  0  0  0  0  0  0  0  0  0  0  0
  1  2  1  0
  2  3  1  0
  2  4  1  0
  4  5  1  6
  5  6  1  0
  6  7  1  0
  7  8  2  0
  8  9  1  0
  9 10  1  0
  9 11  2  0
 11 12  1  0
  4 13  1  0
 13 14  1  0
 13 15  2  0
 12  6  2  0
M  ISO  2   1   1  14   2
M  END
>  <symbol>  (733) 
D_mePhe_4Cl

>  <m_abbr>  (733) 
D_mePhe_4Cl

>  <m_name>  (733) 
NMe-D-4-chlorophenylalanine

>  <m_type>  (733) 
aa

>  <m_subtype>  (733) 
modified

>  <m_Rgroups>  (733) 
[H],[OH]

>  <m_chem_types>  (733) 
1:backbone_n,2:backbone_c

>  <m_activation_policy>  (733) 
canonical-sites-v1

$$$$

     RDKit          2D

 15 15  0  0  0  0  0  0  0  0999 V2000
   -2.5933    2.2771    0.0000 R   0  0  0  0  0  1  0  0  0  0  0  0
   -1.4913    1.2594    0.0000 N   0  0  0  0  0  0  0  0  0  0  0  0
   -0.0590    1.7049    0.0000 C   0  0  0  0  0  0  0  0  0  0  0  0
   -1.8217   -0.2038    0.0000 C   0  0  0  0  0  0  0  0  0  0  0  0
   -0.7197   -1.2215    0.0000 C   0  0  0  0  0  0  0  0  0  0  0  0
    0.7126   -0.7760    0.0000 C   0  0  0  0  0  0  0  0  0  0  0  0
    1.0430    0.6872    0.0000 C   0  0  0  0  0  0  0  0  0  0  0  0
    2.4753    1.1326    0.0000 C   0  0  0  0  0  0  0  0  0  0  0  0
    3.5773    0.1149    0.0000 C   0  0  0  0  0  0  0  0  0  0  0  0
    5.0096    0.5604    0.0000 F   0  0  0  0  0  0  0  0  0  0  0  0
    3.2469   -1.3482    0.0000 C   0  0  0  0  0  0  0  0  0  0  0  0
    1.8146   -1.7937    0.0000 C   0  0  0  0  0  0  0  0  0  0  0  0
   -3.2540   -0.6493    0.0000 C   0  0  0  0  0  0  0  0  0  0  0  0
   -4.3559    0.3684    0.0000 R   0  0  0  0  0  1  0  0  0  0  0  0
   -3.5844   -2.1124    0.0000 O   0  0  0  0  0  0  0  0  0  0  0  0
  1  2  1  0
  2  3  1  0
  2  4  1  0
  4  5  1  6
  5  6  1  0
  6  7  1  0
  7  8  2  0
  8  9  1  0
  9 10  1  0
  9 11  2  0
 11 12  1  0
  4 13  1  0
 13 14  1  0
 13 15  2  0
 12  6  2  0
M  ISO  2   1   1  14   2
M  END
>  <symbol>  (734) 
D_mePhe_4F

>  <m_abbr>  (734) 
D_mePhe_4F

>  <m_name>  (734) 
NMe-D-4-fluorophenylalanine

>  <m_type>  (734) 
aa

>  <m_subtype>  (734) 
modified

>  <m_Rgroups>  (734) 
[H],[OH]

>  <m_chem_types>  (734) 
1:backbone_n,2:backbone_c

>  <m_activation_policy>  (734) 
canonical-sites-v1

$$$$

     RDKit          2D

 16 16  0  0  0  0  0  0  0  0999 V2000
   -3.0227    2.2431    0.0000 R   0  0  0  0  0  1  0  0  0  0  0  0
   -1.8997    1.2486    0.0000 N   0  0  0  0  0  0  0  0  0  0  0  0
   -0.4770    1.7239    0.0000 C   0  0  0  0  0  0  0  0  0  0  0  0
   -2.1995   -0.2211    0.0000 C   0  0  0  0  0  0  0  0  0  0  0  0
   -1.0766   -1.2156    0.0000 C   0  0  0  0  0  0  0  0  0  0  0  0
    0.3462   -0.7404    0.0000 C   0  0  0  0  0  0  0  0  0  0  0  0
    0.6459    0.7294    0.0000 C   0  0  0  0  0  0  0  0  0  0  0  0
    2.0687    1.2046    0.0000 C   0  0  0  0  0  0  0  0  0  0  0  0
    3.1916    0.2101    0.0000 C   0  0  0  0  0  0  0  0  0  0  0  0
    4.6143    0.6854    0.0000 O   0  0  0  0  0  0  0  0  0  0  0  0
    5.7373   -0.3091    0.0000 C   0  0  0  0  0  0  0  0  0  0  0  0
    2.8918   -1.2596    0.0000 C   0  0  0  0  0  0  0  0  0  0  0  0
    1.4691   -1.7348    0.0000 C   0  0  0  0  0  0  0  0  0  0  0  0
   -3.6222   -0.6964    0.0000 C   0  0  0  0  0  0  0  0  0  0  0  0
   -4.7452    0.2981    0.0000 R   0  0  0  0  0  1  0  0  0  0  0  0
   -3.9220   -2.1661    0.0000 O   0  0  0  0  0  0  0  0  0  0  0  0
  1  2  1  0
  2  3  1  0
  2  4  1  0
  4  5  1  6
  5  6  1  0
  6  7  1  0
  7  8  2  0
  8  9  1  0
  9 10  1  0
 10 11  1  0
  9 12  2  0
 12 13  1  0
  4 14  1  0
 14 15  1  0
 14 16  2  0
 13  6  2  0
M  ISO  2   1   1  15   2
M  END
>  <symbol>  (735) 
D_mePhe_4OMe

>  <m_abbr>  (735) 
D_mePhe_4OMe

>  <m_name>  (735) 
NMe-D-4-methoxyphenylalanine

>  <m_type>  (735) 
aa

>  <m_subtype>  (735) 
modified

>  <m_Rgroups>  (735) 
[H],[OH]

>  <m_chem_types>  (735) 
1:backbone_n,2:backbone_c

>  <m_activation_policy>  (735) 
canonical-sites-v1

$$$$

     RDKit          2D

 18 18  0  0  0  0  0  0  0  0999 V2000
   -3.3850    2.3467    0.0000 R   0  0  0  0  0  1  0  0  0  0  0  0
   -2.3401    1.2705    0.0000 N   0  0  0  0  0  0  0  0  0  0  0  0
   -0.8856    1.6374    0.0000 C   0  0  0  0  0  0  0  0  0  0  0  0
   -2.7496   -0.1725    0.0000 C   0  0  0  0  0  0  0  0  0  0  0  0
   -1.7047   -1.2487    0.0000 C   0  0  0  0  0  0  0  0  0  0  0  0
   -0.2503   -0.8818    0.0000 C   0  0  0  0  0  0  0  0  0  0  0  0
    0.1593    0.5612    0.0000 C   0  0  0  0  0  0  0  0  0  0  0  0
    1.6137    0.9280    0.0000 C   0  0  0  0  0  0  0  0  0  0  0  0
    2.6586   -0.1482    0.0000 C   0  0  0  0  0  0  0  0  0  0  0  0
    4.1131    0.2186    0.0000 C   0  0  0  0  0  0  0  0  0  0  0  0
    4.4799   -1.2358    0.0000 C   0  0  0  0  0  0  0  0  0  0  0  0
    3.7463    1.6731    0.0000 C   0  0  0  0  0  0  0  0  0  0  0  0
    5.5675    0.5855    0.0000 C   0  0  0  0  0  0  0  0  0  0  0  0
    2.2491   -1.5912    0.0000 C   0  0  0  0  0  0  0  0  0  0  0  0
    0.7946   -1.9580    0.0000 C   0  0  0  0  0  0  0  0  0  0  0  0
   -4.2041   -0.5393    0.0000 C   0  0  0  0  0  0  0  0  0  0  0  0
   -5.2490    0.5369    0.0000 R   0  0  0  0  0  1  0  0  0  0  0  0
   -4.6136   -1.9823    0.0000 O   0  0  0  0  0  0  0  0  0  0  0  0
  1  2  1  0
  2  3  1  0
  2  4  1  0
  4  5  1  6
  5  6  1  0
  6  7  1  0
  7  8  2  0
  8  9  1  0
  9 10  1  0
 10 11  1  0
 10 12  1  0
 10 13  1  0
  9 14  2  0
 14 15  1  0
  4 16  1  0
 16 17  1  0
 16 18  2  0
 15  6  2  0
M  ISO  2   1   1  17   2
M  END
>  <symbol>  (736) 
D_mePhe_4tBu

>  <m_abbr>  (736) 
D_mePhe_4tBu

>  <m_name>  (736) 
NMe-D-4-tert-butylphenylalanine

>  <m_type>  (736) 
aa

>  <m_subtype>  (736) 
modified

>  <m_Rgroups>  (736) 
[H],[OH]

>  <m_chem_types>  (736) 
1:backbone_n,2:backbone_c

>  <m_activation_policy>  (736) 
canonical-sites-v1

$$$$

     RDKit          2D

 19 20  0  0  0  0  0  0  0  0999 V2000
   -4.2475   -1.6475    0.0000 R   0  0  0  0  0  1  0  0  0  0  0  0
   -2.8651   -1.0651    0.0000 N   0  0  0  0  0  0  0  0  0  0  0  0
   -1.6696   -1.9710    0.0000 C   0  0  0  0  0  0  0  0  0  0  0  0
   -2.6783    0.4232    0.0000 C   0  0  0  0  0  0  0  0  0  0  0  0
   -1.2960    1.0056    0.0000 C   0  0  0  0  0  0  0  0  0  0  0  0
   -0.1005    0.0997    0.0000 C   0  0  0  0  0  0  0  0  0  0  0  0
   -0.1307   -1.4000    0.0000 C   0  0  0  0  0  0  0  0  0  0  0  0
    1.2863   -1.8921    0.0000 N   0  0  0  0  0  0  0  0  0  0  0  0
    1.7210   -3.3278    0.0000 R   0  0  0  0  0  1  0  0  0  0  0  0
    2.1922   -0.6966    0.0000 C   0  0  0  0  0  0  0  0  0  0  0  0
    3.6868   -0.5699    0.0000 C   0  0  0  0  0  0  0  0  0  0  0  0
    4.3244    0.7879    0.0000 C   0  0  0  0  0  0  0  0  0  0  0  0
    5.8190    0.9146    0.0000 F   0  0  0  0  0  0  0  0  0  0  0  0
    3.4673    2.0189    0.0000 C   0  0  0  0  0  0  0  0  0  0  0  0
    1.9727    1.8922    0.0000 C   0  0  0  0  0  0  0  0  0  0  0  0
    1.3351    0.5344    0.0000 C   0  0  0  0  0  0  0  0  0  0  0  0
   -3.8739    1.3292    0.0000 C   0  0  0  0  0  0  0  0  0  0  0  0
   -5.2562    0.7468    0.0000 R   0  0  0  0  0  1  0  0  0  0  0  0
   -3.6871    2.8175    0.0000 O   0  0  0  0  0  0  0  0  0  0  0  0
  1  2  1  0
  2  3  1  0
  2  4  1  0
  4  5  1  1
  5  6  1  0
  6  7  2  0
  7  8  1  0
  8  9  1  0
  8 10  1  0
 10 11  1  0
 11 12  2  0
 12 13  1  0
 12 14  1  0
 14 15  2  0
 15 16  1  0
  4 17  1  0
 17 18  1  0
 17 19  2  0
 16  6  1  0
 16 10  2  0
M  ISO  3   1   1   9   4  18   2
M  END
>  <symbol>  (737) 
D_meTrp_5F

>  <m_abbr>  (737) 
D_meTrp_5F

>  <m_name>  (737) 
NMe-D-5-fluorotryptophan

>  <m_type>  (737) 
aa

>  <m_subtype>  (737) 
modified

>  <m_Rgroups>  (737) 
[H],[OH],None,[H]

>  <m_chem_types>  (737) 
1:backbone_n,2:backbone_c,4:aromatic_nh

>  <m_activation_policy>  (737) 
canonical-sites-v1

$$$$

     RDKit          2D

 19 20  0  0  0  0  0  0  0  0999 V2000
   -4.2475   -1.6475    0.0000 R   0  0  0  0  0  1  0  0  0  0  0  0
   -2.8651   -1.0651    0.0000 N   0  0  0  0  0  0  0  0  0  0  0  0
   -1.6696   -1.9710    0.0000 C   0  0  0  0  0  0  0  0  0  0  0  0
   -2.6783    0.4232    0.0000 C   0  0  0  0  0  0  0  0  0  0  0  0
   -1.2960    1.0056    0.0000 C   0  0  0  0  0  0  0  0  0  0  0  0
   -0.1005    0.0997    0.0000 C   0  0  0  0  0  0  0  0  0  0  0  0
   -0.1307   -1.4000    0.0000 C   0  0  0  0  0  0  0  0  0  0  0  0
    1.2863   -1.8921    0.0000 N   0  0  0  0  0  0  0  0  0  0  0  0
    1.7210   -3.3278    0.0000 R   0  0  0  0  0  1  0  0  0  0  0  0
    2.1922   -0.6966    0.0000 C   0  0  0  0  0  0  0  0  0  0  0  0
    3.6868   -0.5699    0.0000 C   0  0  0  0  0  0  0  0  0  0  0  0
    4.3244    0.7879    0.0000 C   0  0  0  0  0  0  0  0  0  0  0  0
    5.8190    0.9146    0.0000 C   0  0  0  0  0  0  0  0  0  0  0  0
    3.4673    2.0189    0.0000 C   0  0  0  0  0  0  0  0  0  0  0  0
    1.9727    1.8922    0.0000 C   0  0  0  0  0  0  0  0  0  0  0  0
    1.3351    0.5344    0.0000 C   0  0  0  0  0  0  0  0  0  0  0  0
   -3.8739    1.3292    0.0000 C   0  0  0  0  0  0  0  0  0  0  0  0
   -5.2562    0.7468    0.0000 R   0  0  0  0  0  1  0  0  0  0  0  0
   -3.6871    2.8175    0.0000 O   0  0  0  0  0  0  0  0  0  0  0  0
  1  2  1  0
  2  3  1  0
  2  4  1  0
  4  5  1  1
  5  6  1  0
  6  7  2  0
  7  8  1  0
  8  9  1  0
  8 10  1  0
 10 11  1  0
 11 12  2  0
 12 13  1  0
 12 14  1  0
 14 15  2  0
 15 16  1  0
  4 17  1  0
 17 18  1  0
 17 19  2  0
 16  6  1  0
 16 10  2  0
M  ISO  3   1   1   9   4  18   2
M  END
>  <symbol>  (738) 
D_meTrp_5Me

>  <m_abbr>  (738) 
D_meTrp_5Me

>  <m_name>  (738) 
NMe-D-5-methyltryptophan

>  <m_type>  (738) 
aa

>  <m_subtype>  (738) 
modified

>  <m_Rgroups>  (738) 
[H],[OH],None,[H]

>  <m_chem_types>  (738) 
1:backbone_n,2:backbone_c,4:aromatic_nh

>  <m_activation_policy>  (738) 
canonical-sites-v1

$$$$

     RDKit          2D

 18 19  0  0  0  0  0  0  0  0999 V2000
   -3.8349   -1.8005    0.0000 R   0  0  0  0  0  1  0  0  0  0  0  0
   -2.4851   -1.1463    0.0000 N   0  0  0  0  0  0  0  0  0  0  0  0
   -1.2436   -1.9882    0.0000 C   0  0  0  0  0  0  0  0  0  0  0  0
   -2.3767    0.3497    0.0000 C   0  0  0  0  0  0  0  0  0  0  0  0
   -1.0269    1.0039    0.0000 C   0  0  0  0  0  0  0  0  0  0  0  0
    0.2146    0.1620    0.0000 C   0  0  0  0  0  0  0  0  0  0  0  0
    0.2632   -1.3372    0.0000 C   0  0  0  0  0  0  0  0  0  0  0  0
    1.7040   -1.7543    0.0000 N   0  0  0  0  0  0  0  0  0  0  0  0
    2.2135   -3.1651    0.0000 R   0  0  0  0  0  1  0  0  0  0  0  0
    2.5459   -0.5128    0.0000 C   0  0  0  0  0  0  0  0  0  0  0  0
    4.0318   -0.3078    0.0000 N   0  0  0  0  0  0  0  0  0  0  0  0
    4.5972    1.0816    0.0000 C   0  0  0  0  0  0  0  0  0  0  0  0
    3.6767    2.2659    0.0000 C   0  0  0  0  0  0  0  0  0  0  0  0
    2.1908    2.0609    0.0000 C   0  0  0  0  0  0  0  0  0  0  0  0
    1.6254    0.6715    0.0000 C   0  0  0  0  0  0  0  0  0  0  0  0
   -3.6182    1.1916    0.0000 C   0  0  0  0  0  0  0  0  0  0  0  0
   -4.9680    0.5375    0.0000 R   0  0  0  0  0  1  0  0  0  0  0  0
   -3.5098    2.6877    0.0000 O   0  0  0  0  0  0  0  0  0  0  0  0
  1  2  1  0
  2  3  1  0
  2  4  1  0
  4  5  1  1
  5  6  1  0
  6  7  2  0
  7  8  1  0
  8  9  1  0
  8 10  1  0
 10 11  2  0
 11 12  1  0
 12 13  2  0
 13 14  1  0
 14 15  2  0
  4 16  1  0
 16 17  1  0
 16 18  2  0
 15  6  1  0
 15 10  1  0
M  ISO  3   1   1   9   4  17   2
M  END
>  <symbol>  (739) 
D_meTrp_7Aza

>  <m_abbr>  (739) 
D_meTrp_7Aza

>  <m_name>  (739) 
NMe-D-7-azatryptophan

>  <m_type>  (739) 
aa

>  <m_subtype>  (739) 
modified

>  <m_Rgroups>  (739) 
[H],[OH],None,[H]

>  <m_chem_types>  (739) 
1:backbone_n,2:backbone_c,4:aromatic_nh

>  <m_activation_policy>  (739) 
canonical-sites-v1

$$$$

     RDKit          2D

 13 12  0  0  0  0  0  0  0  0999 V2000
   -4.0960   -0.1954    0.0000 R   0  0  0  0  0  1  0  0  0  0  0  0
   -2.7929   -0.9383    0.0000 N   0  0  0  0  0  0  0  0  0  0  0  0
   -2.7847   -2.4383    0.0000 C   0  0  0  0  0  0  0  0  0  0  0  0
   -1.4979   -0.1812    0.0000 C   0  0  0  0  0  0  0  0  0  0  0  0
   -0.1948   -0.9242    0.0000 C   0  0  0  0  0  0  0  0  0  0  0  0
    1.1001   -0.1671    0.0000 C   0  0  0  0  0  0  0  0  0  0  0  0
    2.4032   -0.9100    0.0000 C   0  0  0  0  0  0  0  0  0  0  0  0
    3.6982   -0.1529    0.0000 N   0  0  0  0  0  0  0  0  0  0  0  0
    5.0013   -0.8959    0.0000 R   0  0  0  0  0  1  0  0  0  0  0  0
    3.6900    1.3470    0.0000 R   0  0  0  0  0  1  0  0  0  0  0  0
   -1.5061    1.3187    0.0000 C   0  0  0  0  0  0  0  0  0  0  0  0
   -0.2112    2.0758    0.0000 R   0  0  0  0  0  1  0  0  0  0  0  0
   -2.8092    2.0617    0.0000 O   0  0  0  0  0  0  0  0  0  0  0  0
  1  2  1  0
  2  3  1  0
  2  4  1  0
  4  5  1  6
  5  6  1  0
  6  7  1  0
  7  8  1  0
  8  9  1  0
  8 10  1  0
  4 11  1  0
 11 12  1  0
 11 13  2  0
M  ISO  4   1   1   9   4  10   5  12   2
M  END
>  <symbol>  (740) 
meOrn

>  <m_abbr>  (740) 
meOrn

>  <m_name>  (740) 
NMe-L-ornithine

>  <m_type>  (740) 
aa

>  <m_subtype>  (740) 
modified

>  <m_Rgroups>  (740) 
[H],[OH],None,[H],[H]

>  <m_chem_types>  (740) 
1:backbone_n,2:backbone_c,4:amine_primary,5:amine_primary

>  <m_activation_policy>  (740) 
canonical-sites-v1

$$$$

     RDKit          2D

 13 12  0  0  0  0  0  0  0  0999 V2000
   -4.0960   -0.1954    0.0000 R   0  0  0  0  0  1  0  0  0  0  0  0
   -2.7929   -0.9383    0.0000 N   0  0  0  0  0  0  0  0  0  0  0  0
   -2.7847   -2.4383    0.0000 C   0  0  0  0  0  0  0  0  0  0  0  0
   -1.4979   -0.1812    0.0000 C   0  0  0  0  0  0  0  0  0  0  0  0
   -0.1948   -0.9242    0.0000 C   0  0  0  0  0  0  0  0  0  0  0  0
    1.1001   -0.1671    0.0000 C   0  0  0  0  0  0  0  0  0  0  0  0
    2.4032   -0.9100    0.0000 C   0  0  0  0  0  0  0  0  0  0  0  0
    3.6982   -0.1529    0.0000 N   0  0  0  0  0  0  0  0  0  0  0  0
    5.0013   -0.8959    0.0000 R   0  0  0  0  0  1  0  0  0  0  0  0
    3.6900    1.3470    0.0000 R   0  0  0  0  0  1  0  0  0  0  0  0
   -1.5061    1.3187    0.0000 C   0  0  0  0  0  0  0  0  0  0  0  0
   -0.2112    2.0758    0.0000 R   0  0  0  0  0  1  0  0  0  0  0  0
   -2.8092    2.0617    0.0000 O   0  0  0  0  0  0  0  0  0  0  0  0
  1  2  1  0
  2  3  1  0
  2  4  1  0
  4  5  1  1
  5  6  1  0
  6  7  1  0
  7  8  1  0
  8  9  1  0
  8 10  1  0
  4 11  1  0
 11 12  1  0
 11 13  2  0
M  ISO  4   1   1   9   4  10   5  12   2
M  END
>  <symbol>  (741) 
D_meOrn

>  <m_abbr>  (741) 
D_meOrn

>  <m_name>  (741) 
NMe-D-ornithine

>  <m_type>  (741) 
aa

>  <m_subtype>  (741) 
modified

>  <m_Rgroups>  (741) 
[H],[OH],None,[H],[H]

>  <m_chem_types>  (741) 
1:backbone_n,2:backbone_c,4:amine_primary,5:amine_primary

>  <m_activation_policy>  (741) 
canonical-sites-v1

$$$$

     RDKit          2D

 12 11  0  0  0  0  0  0  0  0999 V2000
   -3.5281   -0.5638    0.0000 R   0  0  0  0  0  1  0  0  0  0  0  0
   -2.1179   -1.0748    0.0000 N   0  0  0  0  0  0  0  0  0  0  0  0
   -1.8553   -2.5517    0.0000 C   0  0  0  0  0  0  0  0  0  0  0  0
   -0.9702   -0.1090    0.0000 C   0  0  0  0  0  0  0  0  0  0  0  0
    0.4401   -0.6200    0.0000 C   0  0  0  0  0  0  0  0  0  0  0  0
    1.5878    0.3458    0.0000 C   0  0  0  0  0  0  0  0  0  0  0  0
    2.9981   -0.1653    0.0000 N   0  0  0  0  0  0  0  0  0  0  0  0
    4.1458    0.8005    0.0000 R   0  0  0  0  0  1  0  0  0  0  0  0
    3.2606   -1.6421    0.0000 R   0  0  0  0  0  1  0  0  0  0  0  0
   -1.2327    1.3678    0.0000 C   0  0  0  0  0  0  0  0  0  0  0  0
   -0.0850    2.3336    0.0000 R   0  0  0  0  0  1  0  0  0  0  0  0
   -2.6430    1.8789    0.0000 O   0  0  0  0  0  0  0  0  0  0  0  0
  1  2  1  0
  2  3  1  0
  2  4  1  0
  4  5  1  6
  5  6  1  0
  6  7  1  0
  7  8  1  0
  7  9  1  0
  4 10  1  0
 10 11  1  0
 10 12  2  0
M  ISO  4   1   1   8   4   9   5  11   2
M  END
>  <symbol>  (742) 
meDab

>  <m_abbr>  (742) 
meDab

>  <m_name>  (742) 
NMe-L-2,4-diaminobutyric acid

>  <m_type>  (742) 
aa

>  <m_subtype>  (742) 
modified

>  <m_Rgroups>  (742) 
[H],[OH],None,[H],[H]

>  <m_chem_types>  (742) 
1:backbone_n,2:backbone_c,4:amine_primary,5:amine_primary

>  <m_activation_policy>  (742) 
canonical-sites-v1

$$$$

     RDKit          2D

 12 11  0  0  0  0  0  0  0  0999 V2000
   -3.5281   -0.5638    0.0000 R   0  0  0  0  0  1  0  0  0  0  0  0
   -2.1179   -1.0748    0.0000 N   0  0  0  0  0  0  0  0  0  0  0  0
   -1.8553   -2.5517    0.0000 C   0  0  0  0  0  0  0  0  0  0  0  0
   -0.9702   -0.1090    0.0000 C   0  0  0  0  0  0  0  0  0  0  0  0
    0.4401   -0.6200    0.0000 C   0  0  0  0  0  0  0  0  0  0  0  0
    1.5878    0.3458    0.0000 C   0  0  0  0  0  0  0  0  0  0  0  0
    2.9981   -0.1653    0.0000 N   0  0  0  0  0  0  0  0  0  0  0  0
    4.1458    0.8005    0.0000 R   0  0  0  0  0  1  0  0  0  0  0  0
    3.2606   -1.6421    0.0000 R   0  0  0  0  0  1  0  0  0  0  0  0
   -1.2327    1.3678    0.0000 C   0  0  0  0  0  0  0  0  0  0  0  0
   -0.0850    2.3336    0.0000 R   0  0  0  0  0  1  0  0  0  0  0  0
   -2.6430    1.8789    0.0000 O   0  0  0  0  0  0  0  0  0  0  0  0
  1  2  1  0
  2  3  1  0
  2  4  1  0
  4  5  1  1
  5  6  1  0
  6  7  1  0
  7  8  1  0
  7  9  1  0
  4 10  1  0
 10 11  1  0
 10 12  2  0
M  ISO  4   1   1   8   4   9   5  11   2
M  END
>  <symbol>  (743) 
D_meDab

>  <m_abbr>  (743) 
D_meDab

>  <m_name>  (743) 
NMe-D-2,4-diaminobutyric acid

>  <m_type>  (743) 
aa

>  <m_subtype>  (743) 
modified

>  <m_Rgroups>  (743) 
[H],[OH],None,[H],[H]

>  <m_chem_types>  (743) 
1:backbone_n,2:backbone_c,4:amine_primary,5:amine_primary

>  <m_activation_policy>  (743) 
canonical-sites-v1

$$$$

     RDKit          2D

 11 10  0  0  0  0  0  0  0  0999 V2000
   -3.0813    0.0866    0.0000 R   0  0  0  0  0  1  0  0  0  0  0  0
   -1.8784   -0.8095    0.0000 N   0  0  0  0  0  0  0  0  0  0  0  0
   -2.0531   -2.2993    0.0000 C   0  0  0  0  0  0  0  0  0  0  0  0
   -0.5009   -0.2159    0.0000 C   0  0  0  0  0  0  0  0  0  0  0  0
    0.7020   -1.1120    0.0000 C   0  0  0  0  0  0  0  0  0  0  0  0
    2.0795   -0.5184    0.0000 N   0  0  0  0  0  0  0  0  0  0  0  0
    3.2824   -1.4145    0.0000 R   0  0  0  0  0  1  0  0  0  0  0  0
    2.2541    0.9714    0.0000 R   0  0  0  0  0  1  0  0  0  0  0  0
   -0.3263    1.2739    0.0000 C   0  0  0  0  0  0  0  0  0  0  0  0
    1.0513    1.8676    0.0000 R   0  0  0  0  0  1  0  0  0  0  0  0
   -1.5291    2.1701    0.0000 O   0  0  0  0  0  0  0  0  0  0  0  0
  1  2  1  0
  2  3  1  0
  2  4  1  0
  4  5  1  6
  5  6  1  0
  6  7  1  0
  6  8  1  0
  4  9  1  0
  9 10  1  0
  9 11  2  0
M  ISO  4   1   1   7   4   8   5  10   2
M  END
>  <symbol>  (744) 
meDap

>  <m_abbr>  (744) 
meDap

>  <m_name>  (744) 
NMe-L-2,3-diaminopropionic acid

>  <m_type>  (744) 
aa

>  <m_subtype>  (744) 
modified

>  <m_Rgroups>  (744) 
[H],[OH],None,[H],[H]

>  <m_chem_types>  (744) 
1:backbone_n,2:backbone_c,4:amine_primary,5:amine_primary

>  <m_activation_policy>  (744) 
canonical-sites-v1

$$$$

     RDKit          2D

 11 10  0  0  0  0  0  0  0  0999 V2000
   -3.0813    0.0866    0.0000 R   0  0  0  0  0  1  0  0  0  0  0  0
   -1.8784   -0.8095    0.0000 N   0  0  0  0  0  0  0  0  0  0  0  0
   -2.0531   -2.2993    0.0000 C   0  0  0  0  0  0  0  0  0  0  0  0
   -0.5009   -0.2159    0.0000 C   0  0  0  0  0  0  0  0  0  0  0  0
    0.7020   -1.1120    0.0000 C   0  0  0  0  0  0  0  0  0  0  0  0
    2.0795   -0.5184    0.0000 N   0  0  0  0  0  0  0  0  0  0  0  0
    3.2824   -1.4145    0.0000 R   0  0  0  0  0  1  0  0  0  0  0  0
    2.2541    0.9714    0.0000 R   0  0  0  0  0  1  0  0  0  0  0  0
   -0.3263    1.2739    0.0000 C   0  0  0  0  0  0  0  0  0  0  0  0
    1.0513    1.8676    0.0000 R   0  0  0  0  0  1  0  0  0  0  0  0
   -1.5291    2.1701    0.0000 O   0  0  0  0  0  0  0  0  0  0  0  0
  1  2  1  0
  2  3  1  0
  2  4  1  0
  4  5  1  1
  5  6  1  0
  6  7  1  0
  6  8  1  0
  4  9  1  0
  9 10  1  0
  9 11  2  0
M  ISO  4   1   1   7   4   8   5  10   2
M  END
>  <symbol>  (745) 
D_meDap

>  <m_abbr>  (745) 
D_meDap

>  <m_name>  (745) 
NMe-D-2,3-diaminopropionic acid

>  <m_type>  (745) 
aa

>  <m_subtype>  (745) 
modified

>  <m_Rgroups>  (745) 
[H],[OH],None,[H],[H]

>  <m_chem_types>  (745) 
1:backbone_n,2:backbone_c,4:amine_primary,5:amine_primary

>  <m_activation_policy>  (745) 
canonical-sites-v1

$$$$

     RDKit          2D

 15 15  0  0  0  0  0  0  0  0999 V2000
   -2.6971    2.1670    0.0000 R   0  0  0  0  0  1  0  0  0  0  0  0
   -1.4605    1.3179    0.0000 N   0  0  0  0  0  0  0  0  0  0  0  0
   -0.1069    1.9643    0.0000 C   0  0  0  0  0  0  0  0  0  0  0  0
   -1.5775   -0.1775    0.0000 C   0  0  0  0  0  0  0  0  0  0  0  0
   -0.3409   -1.0265    0.0000 C   0  0  0  0  0  0  0  0  0  0  0  0
    1.0127   -0.3802    0.0000 C   0  0  0  0  0  0  0  0  0  0  0  0
    1.1297    1.1153    0.0000 C   0  0  0  0  0  0  0  0  0  0  0  0
    2.4833    1.7617    0.0000 C   0  0  0  0  0  0  0  0  0  0  0  0
    3.7198    0.9126    0.0000 C   0  0  0  0  0  0  0  0  0  0  0  0
    3.6028   -0.5828    0.0000 C   0  0  0  0  0  0  0  0  0  0  0  0
    2.2492   -1.2292    0.0000 C   0  0  0  0  0  0  0  0  0  0  0  0
    2.1322   -2.7246    0.0000 F   0  0  0  0  0  0  0  0  0  0  0  0
   -2.9311   -0.8239    0.0000 C   0  0  0  0  0  0  0  0  0  0  0  0
   -4.1677    0.0252    0.0000 R   0  0  0  0  0  1  0  0  0  0  0  0
   -3.0481   -2.3193    0.0000 O   0  0  0  0  0  0  0  0  0  0  0  0
  1  2  1  0
  2  3  1  0
  2  4  1  0
  4  5  1  1
  5  6  1  0
  6  7  2  0
  7  8  1  0
  8  9  2  0
  9 10  1  0
 10 11  2  0
 11 12  1  0
  4 13  1  0
 13 14  1  0
 13 15  2  0
 11  6  1  0
M  ISO  2   1   1  14   2
M  END
>  <symbol>  (746) 
mePhe_2F

>  <m_abbr>  (746) 
mePhe_2F

>  <m_name>  (746) 
NMe-L-2-fluorophenylalanine

>  <m_type>  (746) 
aa

>  <m_subtype>  (746) 
modified

>  <m_Rgroups>  (746) 
[H],[OH]

>  <m_chem_types>  (746) 
1:backbone_n,2:backbone_c

>  <m_activation_policy>  (746) 
canonical-sites-v1

$$$$

     RDKit          2D

 15 15  0  0  0  0  0  0  0  0999 V2000
   -2.6971    2.1670    0.0000 R   0  0  0  0  0  1  0  0  0  0  0  0
   -1.4605    1.3179    0.0000 N   0  0  0  0  0  0  0  0  0  0  0  0
   -0.1069    1.9643    0.0000 C   0  0  0  0  0  0  0  0  0  0  0  0
   -1.5775   -0.1775    0.0000 C   0  0  0  0  0  0  0  0  0  0  0  0
   -0.3409   -1.0265    0.0000 C   0  0  0  0  0  0  0  0  0  0  0  0
    1.0127   -0.3802    0.0000 C   0  0  0  0  0  0  0  0  0  0  0  0
    1.1297    1.1153    0.0000 C   0  0  0  0  0  0  0  0  0  0  0  0
    2.4833    1.7617    0.0000 C   0  0  0  0  0  0  0  0  0  0  0  0
    3.7198    0.9126    0.0000 C   0  0  0  0  0  0  0  0  0  0  0  0
    3.6028   -0.5828    0.0000 C   0  0  0  0  0  0  0  0  0  0  0  0
    2.2492   -1.2292    0.0000 C   0  0  0  0  0  0  0  0  0  0  0  0
    2.1322   -2.7246    0.0000 F   0  0  0  0  0  0  0  0  0  0  0  0
   -2.9311   -0.8239    0.0000 C   0  0  0  0  0  0  0  0  0  0  0  0
   -4.1677    0.0252    0.0000 R   0  0  0  0  0  1  0  0  0  0  0  0
   -3.0481   -2.3193    0.0000 O   0  0  0  0  0  0  0  0  0  0  0  0
  1  2  1  0
  2  3  1  0
  2  4  1  0
  4  5  1  6
  5  6  1  0
  6  7  2  0
  7  8  1  0
  8  9  2  0
  9 10  1  0
 10 11  2  0
 11 12  1  0
  4 13  1  0
 13 14  1  0
 13 15  2  0
 11  6  1  0
M  ISO  2   1   1  14   2
M  END
>  <symbol>  (747) 
D_mePhe_2F

>  <m_abbr>  (747) 
D_mePhe_2F

>  <m_name>  (747) 
NMe-D-2-fluorophenylalanine

>  <m_type>  (747) 
aa

>  <m_subtype>  (747) 
modified

>  <m_Rgroups>  (747) 
[H],[OH]

>  <m_chem_types>  (747) 
1:backbone_n,2:backbone_c

>  <m_activation_policy>  (747) 
canonical-sites-v1

$$$$

     RDKit          2D

 15 15  0  0  0  0  0  0  0  0999 V2000
   -2.6971    2.1670    0.0000 R   0  0  0  0  0  1  0  0  0  0  0  0
   -1.4605    1.3179    0.0000 N   0  0  0  0  0  0  0  0  0  0  0  0
   -0.1069    1.9643    0.0000 C   0  0  0  0  0  0  0  0  0  0  0  0
   -1.5775   -0.1775    0.0000 C   0  0  0  0  0  0  0  0  0  0  0  0
   -0.3409   -1.0265    0.0000 C   0  0  0  0  0  0  0  0  0  0  0  0
    1.0127   -0.3802    0.0000 C   0  0  0  0  0  0  0  0  0  0  0  0
    1.1297    1.1153    0.0000 C   0  0  0  0  0  0  0  0  0  0  0  0
    2.4833    1.7617    0.0000 C   0  0  0  0  0  0  0  0  0  0  0  0
    3.7198    0.9126    0.0000 C   0  0  0  0  0  0  0  0  0  0  0  0
    3.6028   -0.5828    0.0000 C   0  0  0  0  0  0  0  0  0  0  0  0
    2.2492   -1.2292    0.0000 C   0  0  0  0  0  0  0  0  0  0  0  0
    2.1322   -2.7246    0.0000 Cl  0  0  0  0  0  0  0  0  0  0  0  0
   -2.9311   -0.8239    0.0000 C   0  0  0  0  0  0  0  0  0  0  0  0
   -4.1677    0.0252    0.0000 R   0  0  0  0  0  1  0  0  0  0  0  0
   -3.0481   -2.3193    0.0000 O   0  0  0  0  0  0  0  0  0  0  0  0
  1  2  1  0
  2  3  1  0
  2  4  1  0
  4  5  1  1
  5  6  1  0
  6  7  2  0
  7  8  1  0
  8  9  2  0
  9 10  1  0
 10 11  2  0
 11 12  1  0
  4 13  1  0
 13 14  1  0
 13 15  2  0
 11  6  1  0
M  ISO  2   1   1  14   2
M  END
>  <symbol>  (748) 
mePhe_2Cl

>  <m_abbr>  (748) 
mePhe_2Cl

>  <m_name>  (748) 
NMe-L-2-chlorophenylalanine

>  <m_type>  (748) 
aa

>  <m_subtype>  (748) 
modified

>  <m_Rgroups>  (748) 
[H],[OH]

>  <m_chem_types>  (748) 
1:backbone_n,2:backbone_c

>  <m_activation_policy>  (748) 
canonical-sites-v1

$$$$

     RDKit          2D

 15 15  0  0  0  0  0  0  0  0999 V2000
   -2.6971    2.1670    0.0000 R   0  0  0  0  0  1  0  0  0  0  0  0
   -1.4605    1.3179    0.0000 N   0  0  0  0  0  0  0  0  0  0  0  0
   -0.1069    1.9643    0.0000 C   0  0  0  0  0  0  0  0  0  0  0  0
   -1.5775   -0.1775    0.0000 C   0  0  0  0  0  0  0  0  0  0  0  0
   -0.3409   -1.0265    0.0000 C   0  0  0  0  0  0  0  0  0  0  0  0
    1.0127   -0.3802    0.0000 C   0  0  0  0  0  0  0  0  0  0  0  0
    1.1297    1.1153    0.0000 C   0  0  0  0  0  0  0  0  0  0  0  0
    2.4833    1.7617    0.0000 C   0  0  0  0  0  0  0  0  0  0  0  0
    3.7198    0.9126    0.0000 C   0  0  0  0  0  0  0  0  0  0  0  0
    3.6028   -0.5828    0.0000 C   0  0  0  0  0  0  0  0  0  0  0  0
    2.2492   -1.2292    0.0000 C   0  0  0  0  0  0  0  0  0  0  0  0
    2.1322   -2.7246    0.0000 Cl  0  0  0  0  0  0  0  0  0  0  0  0
   -2.9311   -0.8239    0.0000 C   0  0  0  0  0  0  0  0  0  0  0  0
   -4.1677    0.0252    0.0000 R   0  0  0  0  0  1  0  0  0  0  0  0
   -3.0481   -2.3193    0.0000 O   0  0  0  0  0  0  0  0  0  0  0  0
  1  2  1  0
  2  3  1  0
  2  4  1  0
  4  5  1  6
  5  6  1  0
  6  7  2  0
  7  8  1  0
  8  9  2  0
  9 10  1  0
 10 11  2  0
 11 12  1  0
  4 13  1  0
 13 14  1  0
 13 15  2  0
 11  6  1  0
M  ISO  2   1   1  14   2
M  END
>  <symbol>  (749) 
D_mePhe_2Cl

>  <m_abbr>  (749) 
D_mePhe_2Cl

>  <m_name>  (749) 
NMe-D-2-chlorophenylalanine

>  <m_type>  (749) 
aa

>  <m_subtype>  (749) 
modified

>  <m_Rgroups>  (749) 
[H],[OH]

>  <m_chem_types>  (749) 
1:backbone_n,2:backbone_c

>  <m_activation_policy>  (749) 
canonical-sites-v1

$$$$

     RDKit          2D

 15 15  0  0  0  0  0  0  0  0999 V2000
   -2.5933    2.2771    0.0000 R   0  0  0  0  0  1  0  0  0  0  0  0
   -1.4913    1.2594    0.0000 N   0  0  0  0  0  0  0  0  0  0  0  0
   -0.0590    1.7049    0.0000 C   0  0  0  0  0  0  0  0  0  0  0  0
   -1.8217   -0.2038    0.0000 C   0  0  0  0  0  0  0  0  0  0  0  0
   -0.7197   -1.2215    0.0000 C   0  0  0  0  0  0  0  0  0  0  0  0
    0.7126   -0.7760    0.0000 C   0  0  0  0  0  0  0  0  0  0  0  0
    1.0430    0.6872    0.0000 C   0  0  0  0  0  0  0  0  0  0  0  0
    2.4753    1.1326    0.0000 C   0  0  0  0  0  0  0  0  0  0  0  0
    3.5773    0.1149    0.0000 C   0  0  0  0  0  0  0  0  0  0  0  0
    5.0096    0.5604    0.0000 C   0  0  0  0  0  0  0  0  0  0  0  0
    3.2469   -1.3482    0.0000 C   0  0  0  0  0  0  0  0  0  0  0  0
    1.8146   -1.7937    0.0000 C   0  0  0  0  0  0  0  0  0  0  0  0
   -3.2540   -0.6493    0.0000 C   0  0  0  0  0  0  0  0  0  0  0  0
   -4.3559    0.3684    0.0000 R   0  0  0  0  0  1  0  0  0  0  0  0
   -3.5844   -2.1124    0.0000 O   0  0  0  0  0  0  0  0  0  0  0  0
  1  2  1  0
  2  3  1  0
  2  4  1  0
  4  5  1  1
  5  6  1  0
  6  7  1  0
  7  8  2  0
  8  9  1  0
  9 10  1  0
  9 11  2  0
 11 12  1  0
  4 13  1  0
 13 14  1  0
 13 15  2  0
 12  6  2  0
M  ISO  2   1   1  14   2
M  END
>  <symbol>  (750) 
mePhe_4Me

>  <m_abbr>  (750) 
mePhe_4Me

>  <m_name>  (750) 
NMe-L-4-methylphenylalanine

>  <m_type>  (750) 
aa

>  <m_subtype>  (750) 
modified

>  <m_Rgroups>  (750) 
[H],[OH]

>  <m_chem_types>  (750) 
1:backbone_n,2:backbone_c

>  <m_activation_policy>  (750) 
canonical-sites-v1

$$$$

     RDKit          2D

 15 15  0  0  0  0  0  0  0  0999 V2000
   -2.5933    2.2771    0.0000 R   0  0  0  0  0  1  0  0  0  0  0  0
   -1.4913    1.2594    0.0000 N   0  0  0  0  0  0  0  0  0  0  0  0
   -0.0590    1.7049    0.0000 C   0  0  0  0  0  0  0  0  0  0  0  0
   -1.8217   -0.2038    0.0000 C   0  0  0  0  0  0  0  0  0  0  0  0
   -0.7197   -1.2215    0.0000 C   0  0  0  0  0  0  0  0  0  0  0  0
    0.7126   -0.7760    0.0000 C   0  0  0  0  0  0  0  0  0  0  0  0
    1.0430    0.6872    0.0000 C   0  0  0  0  0  0  0  0  0  0  0  0
    2.4753    1.1326    0.0000 C   0  0  0  0  0  0  0  0  0  0  0  0
    3.5773    0.1149    0.0000 C   0  0  0  0  0  0  0  0  0  0  0  0
    5.0096    0.5604    0.0000 C   0  0  0  0  0  0  0  0  0  0  0  0
    3.2469   -1.3482    0.0000 C   0  0  0  0  0  0  0  0  0  0  0  0
    1.8146   -1.7937    0.0000 C   0  0  0  0  0  0  0  0  0  0  0  0
   -3.2540   -0.6493    0.0000 C   0  0  0  0  0  0  0  0  0  0  0  0
   -4.3559    0.3684    0.0000 R   0  0  0  0  0  1  0  0  0  0  0  0
   -3.5844   -2.1124    0.0000 O   0  0  0  0  0  0  0  0  0  0  0  0
  1  2  1  0
  2  3  1  0
  2  4  1  0
  4  5  1  6
  5  6  1  0
  6  7  1  0
  7  8  2  0
  8  9  1  0
  9 10  1  0
  9 11  2  0
 11 12  1  0
  4 13  1  0
 13 14  1  0
 13 15  2  0
 12  6  2  0
M  ISO  2   1   1  14   2
M  END
>  <symbol>  (751) 
D_mePhe_4Me

>  <m_abbr>  (751) 
D_mePhe_4Me

>  <m_name>  (751) 
NMe-D-4-methylphenylalanine

>  <m_type>  (751) 
aa

>  <m_subtype>  (751) 
modified

>  <m_Rgroups>  (751) 
[H],[OH]

>  <m_chem_types>  (751) 
1:backbone_n,2:backbone_c

>  <m_activation_policy>  (751) 
canonical-sites-v1

$$$$

     RDKit          2D

 16 16  0  0  0  0  0  0  0  0999 V2000
   -2.8884    2.3527    0.0000 R   0  0  0  0  0  1  0  0  0  0  0  0
   -1.8355    1.2843    0.0000 N   0  0  0  0  0  0  0  0  0  0  0  0
   -0.3838    1.6619    0.0000 C   0  0  0  0  0  0  0  0  0  0  0  0
   -2.2344   -0.1617    0.0000 C   0  0  0  0  0  0  0  0  0  0  0  0
   -1.1815   -1.2301    0.0000 C   0  0  0  0  0  0  0  0  0  0  0  0
    0.2702   -0.8525    0.0000 C   0  0  0  0  0  0  0  0  0  0  0  0
    0.6690    0.5935    0.0000 C   0  0  0  0  0  0  0  0  0  0  0  0
    2.1207    0.9710    0.0000 C   0  0  0  0  0  0  0  0  0  0  0  0
    3.1736   -0.0974    0.0000 C   0  0  0  0  0  0  0  0  0  0  0  0
    4.6253    0.2802    0.0000 C   0  0  0  0  0  0  0  0  0  0  0  0
    6.0770    0.6578    0.0000 N   0  0  0  0  0  0  0  0  0  0  0  0
    2.7747   -1.5434    0.0000 C   0  0  0  0  0  0  0  0  0  0  0  0
    1.3230   -1.9210    0.0000 C   0  0  0  0  0  0  0  0  0  0  0  0
   -3.6861   -0.5393    0.0000 C   0  0  0  0  0  0  0  0  0  0  0  0
   -4.7389    0.5292    0.0000 R   0  0  0  0  0  1  0  0  0  0  0  0
   -4.0849   -1.9853    0.0000 O   0  0  0  0  0  0  0  0  0  0  0  0
  1  2  1  0
  2  3  1  0
  2  4  1  0
  4  5  1  1
  5  6  1  0
  6  7  1  0
  7  8  2  0
  8  9  1  0
  9 10  1  0
 10 11  3  0
  9 12  2  0
 12 13  1  0
  4 14  1  0
 14 15  1  0
 14 16  2  0
 13  6  2  0
M  ISO  2   1   1  15   2
M  END
>  <symbol>  (752) 
mePhe_4CN

>  <m_abbr>  (752) 
mePhe_4CN

>  <m_name>  (752) 
NMe-L-4-cyanophenylalanine

>  <m_type>  (752) 
aa

>  <m_subtype>  (752) 
modified

>  <m_Rgroups>  (752) 
[H],[OH]

>  <m_chem_types>  (752) 
1:backbone_n,2:backbone_c

>  <m_activation_policy>  (752) 
canonical-sites-v1

$$$$

     RDKit          2D

 16 16  0  0  0  0  0  0  0  0999 V2000
   -2.8884    2.3527    0.0000 R   0  0  0  0  0  1  0  0  0  0  0  0
   -1.8355    1.2843    0.0000 N   0  0  0  0  0  0  0  0  0  0  0  0
   -0.3838    1.6619    0.0000 C   0  0  0  0  0  0  0  0  0  0  0  0
   -2.2344   -0.1617    0.0000 C   0  0  0  0  0  0  0  0  0  0  0  0
   -1.1815   -1.2301    0.0000 C   0  0  0  0  0  0  0  0  0  0  0  0
    0.2702   -0.8525    0.0000 C   0  0  0  0  0  0  0  0  0  0  0  0
    0.6690    0.5935    0.0000 C   0  0  0  0  0  0  0  0  0  0  0  0
    2.1207    0.9710    0.0000 C   0  0  0  0  0  0  0  0  0  0  0  0
    3.1736   -0.0974    0.0000 C   0  0  0  0  0  0  0  0  0  0  0  0
    4.6253    0.2802    0.0000 C   0  0  0  0  0  0  0  0  0  0  0  0
    6.0770    0.6578    0.0000 N   0  0  0  0  0  0  0  0  0  0  0  0
    2.7747   -1.5434    0.0000 C   0  0  0  0  0  0  0  0  0  0  0  0
    1.3230   -1.9210    0.0000 C   0  0  0  0  0  0  0  0  0  0  0  0
   -3.6861   -0.5393    0.0000 C   0  0  0  0  0  0  0  0  0  0  0  0
   -4.7389    0.5292    0.0000 R   0  0  0  0  0  1  0  0  0  0  0  0
   -4.0849   -1.9853    0.0000 O   0  0  0  0  0  0  0  0  0  0  0  0
  1  2  1  0
  2  3  1  0
  2  4  1  0
  4  5  1  6
  5  6  1  0
  6  7  1  0
  7  8  2  0
  8  9  1  0
  9 10  1  0
 10 11  3  0
  9 12  2  0
 12 13  1  0
  4 14  1  0
 14 15  1  0
 14 16  2  0
 13  6  2  0
M  ISO  2   1   1  15   2
M  END
>  <symbol>  (753) 
D_mePhe_4CN

>  <m_abbr>  (753) 
D_mePhe_4CN

>  <m_name>  (753) 
NMe-D-4-cyanophenylalanine

>  <m_type>  (753) 
aa

>  <m_subtype>  (753) 
modified

>  <m_Rgroups>  (753) 
[H],[OH]

>  <m_chem_types>  (753) 
1:backbone_n,2:backbone_c

>  <m_activation_policy>  (753) 
canonical-sites-v1

$$$$

     RDKit          2D

 17 17  0  0  0  0  0  0  0  0999 V2000
   -3.1584    2.3389    0.0000 R   0  0  0  0  0  1  0  0  0  0  0  0
   -2.1065    1.2696    0.0000 N   0  0  0  0  0  0  0  0  0  0  0  0
   -0.6545    1.6460    0.0000 C   0  0  0  0  0  0  0  0  0  0  0  0
   -2.5066   -0.1760    0.0000 C   0  0  0  0  0  0  0  0  0  0  0  0
   -1.4547   -1.2454    0.0000 C   0  0  0  0  0  0  0  0  0  0  0  0
   -0.0026   -0.8690    0.0000 C   0  0  0  0  0  0  0  0  0  0  0  0
    0.3974    0.5766    0.0000 C   0  0  0  0  0  0  0  0  0  0  0  0
    1.8495    0.9530    0.0000 C   0  0  0  0  0  0  0  0  0  0  0  0
    2.9014   -0.1163    0.0000 C   0  0  0  0  0  0  0  0  0  0  0  0
    4.3534    0.2600    0.0000 N   0  0  0  0  0  0  0  0  0  0  0  0
    4.7535    1.7057    0.0000 O   0  0  0  0  0  0  0  0  0  0  0  0
    5.4054   -0.8093    0.0000 O   0  0  0  0  0  0  0  0  0  0  0  0
    2.5013   -1.5620    0.0000 C   0  0  0  0  0  0  0  0  0  0  0  0
    1.0493   -1.9383    0.0000 C   0  0  0  0  0  0  0  0  0  0  0  0
   -3.9586   -0.5524    0.0000 C   0  0  0  0  0  0  0  0  0  0  0  0
   -5.0106    0.5169    0.0000 R   0  0  0  0  0  1  0  0  0  0  0  0
   -4.3587   -1.9980    0.0000 O   0  0  0  0  0  0  0  0  0  0  0  0
  1  2  1  0
  2  3  1  0
  2  4  1  0
  4  5  1  1
  5  6  1  0
  6  7  1  0
  7  8  2  0
  8  9  1  0
  9 10  1  0
 10 11  2  0
 10 12  1  0
  9 13  2  0
 13 14  1  0
  4 15  1  0
 15 16  1  0
 15 17  2  0
 14  6  2  0
M  CHG  2  10   1  12  -1
M  ISO  2   1   1  16   2
M  END
>  <symbol>  (754) 
mePhe_4NO2

>  <m_abbr>  (754) 
mePhe_4NO2

>  <m_name>  (754) 
NMe-L-4-nitrophenylalanine

>  <m_type>  (754) 
aa

>  <m_subtype>  (754) 
modified

>  <m_Rgroups>  (754) 
[H],[OH]

>  <m_chem_types>  (754) 
1:backbone_n,2:backbone_c

>  <m_activation_policy>  (754) 
canonical-sites-v1

$$$$

     RDKit          2D

 17 17  0  0  0  0  0  0  0  0999 V2000
   -3.1584    2.3389    0.0000 R   0  0  0  0  0  1  0  0  0  0  0  0
   -2.1065    1.2696    0.0000 N   0  0  0  0  0  0  0  0  0  0  0  0
   -0.6545    1.6460    0.0000 C   0  0  0  0  0  0  0  0  0  0  0  0
   -2.5066   -0.1760    0.0000 C   0  0  0  0  0  0  0  0  0  0  0  0
   -1.4547   -1.2454    0.0000 C   0  0  0  0  0  0  0  0  0  0  0  0
   -0.0026   -0.8690    0.0000 C   0  0  0  0  0  0  0  0  0  0  0  0
    0.3974    0.5766    0.0000 C   0  0  0  0  0  0  0  0  0  0  0  0
    1.8495    0.9530    0.0000 C   0  0  0  0  0  0  0  0  0  0  0  0
    2.9014   -0.1163    0.0000 C   0  0  0  0  0  0  0  0  0  0  0  0
    4.3534    0.2600    0.0000 N   0  0  0  0  0  0  0  0  0  0  0  0
    4.7535    1.7057    0.0000 O   0  0  0  0  0  0  0  0  0  0  0  0
    5.4054   -0.8093    0.0000 O   0  0  0  0  0  0  0  0  0  0  0  0
    2.5013   -1.5620    0.0000 C   0  0  0  0  0  0  0  0  0  0  0  0
    1.0493   -1.9383    0.0000 C   0  0  0  0  0  0  0  0  0  0  0  0
   -3.9586   -0.5524    0.0000 C   0  0  0  0  0  0  0  0  0  0  0  0
   -5.0106    0.5169    0.0000 R   0  0  0  0  0  1  0  0  0  0  0  0
   -4.3587   -1.9980    0.0000 O   0  0  0  0  0  0  0  0  0  0  0  0
  1  2  1  0
  2  3  1  0
  2  4  1  0
  4  5  1  6
  5  6  1  0
  6  7  1  0
  7  8  2  0
  8  9  1  0
  9 10  1  0
 10 11  2  0
 10 12  1  0
  9 13  2  0
 13 14  1  0
  4 15  1  0
 15 16  1  0
 15 17  2  0
 14  6  2  0
M  CHG  2  10   1  12  -1
M  ISO  2   1   1  16   2
M  END
>  <symbol>  (755) 
D_mePhe_4NO2

>  <m_abbr>  (755) 
D_mePhe_4NO2

>  <m_name>  (755) 
NMe-D-4-nitrophenylalanine

>  <m_type>  (755) 
aa

>  <m_subtype>  (755) 
modified

>  <m_Rgroups>  (755) 
[H],[OH]

>  <m_chem_types>  (755) 
1:backbone_n,2:backbone_c

>  <m_activation_policy>  (755) 
canonical-sites-v1

$$$$

     RDKit          2D

 17 17  0  0  0  0  0  0  0  0999 V2000
   -3.1584    2.3389    0.0000 R   0  0  0  0  0  1  0  0  0  0  0  0
   -2.1065    1.2696    0.0000 N   0  0  0  0  0  0  0  0  0  0  0  0
   -0.6545    1.6460    0.0000 C   0  0  0  0  0  0  0  0  0  0  0  0
   -2.5066   -0.1760    0.0000 C   0  0  0  0  0  0  0  0  0  0  0  0
   -1.4547   -1.2454    0.0000 C   0  0  0  0  0  0  0  0  0  0  0  0
   -0.0026   -0.8690    0.0000 C   0  0  0  0  0  0  0  0  0  0  0  0
    0.3974    0.5766    0.0000 C   0  0  0  0  0  0  0  0  0  0  0  0
    1.8495    0.9530    0.0000 C   0  0  0  0  0  0  0  0  0  0  0  0
    2.9014   -0.1163    0.0000 C   0  0  0  0  0  0  0  0  0  0  0  0
    4.3534    0.2600    0.0000 N   0  0  0  0  0  0  0  0  0  0  0  0
    5.4054   -0.8093    0.0000 R   0  0  0  0  0  1  0  0  0  0  0  0
    4.7535    1.7057    0.0000 R   0  0  0  0  0  1  0  0  0  0  0  0
    2.5013   -1.5620    0.0000 C   0  0  0  0  0  0  0  0  0  0  0  0
    1.0493   -1.9383    0.0000 C   0  0  0  0  0  0  0  0  0  0  0  0
   -3.9586   -0.5524    0.0000 C   0  0  0  0  0  0  0  0  0  0  0  0
   -5.0106    0.5169    0.0000 R   0  0  0  0  0  1  0  0  0  0  0  0
   -4.3587   -1.9980    0.0000 O   0  0  0  0  0  0  0  0  0  0  0  0
  1  2  1  0
  2  3  1  0
  2  4  1  0
  4  5  1  1
  5  6  1  0
  6  7  1  0
  7  8  2  0
  8  9  1  0
  9 10  1  0
 10 11  1  0
 10 12  1  0
  9 13  2  0
 13 14  1  0
  4 15  1  0
 15 16  1  0
 15 17  2  0
 14  6  2  0
M  ISO  4   1   1  11   4  12   5  16   2
M  END
>  <symbol>  (756) 
mePhe_4NH2

>  <m_abbr>  (756) 
mePhe_4NH2

>  <m_name>  (756) 
NMe-L-4-aminophenylalanine

>  <m_type>  (756) 
aa

>  <m_subtype>  (756) 
modified

>  <m_Rgroups>  (756) 
[H],[OH],None,[H],[H]

>  <m_chem_types>  (756) 
1:backbone_n,2:backbone_c,4:amine_primary,5:amine_primary

>  <m_activation_policy>  (756) 
canonical-sites-v1

$$$$

     RDKit          2D

 17 17  0  0  0  0  0  0  0  0999 V2000
   -3.1584    2.3389    0.0000 R   0  0  0  0  0  1  0  0  0  0  0  0
   -2.1065    1.2696    0.0000 N   0  0  0  0  0  0  0  0  0  0  0  0
   -0.6545    1.6460    0.0000 C   0  0  0  0  0  0  0  0  0  0  0  0
   -2.5066   -0.1760    0.0000 C   0  0  0  0  0  0  0  0  0  0  0  0
   -1.4547   -1.2454    0.0000 C   0  0  0  0  0  0  0  0  0  0  0  0
   -0.0026   -0.8690    0.0000 C   0  0  0  0  0  0  0  0  0  0  0  0
    0.3974    0.5766    0.0000 C   0  0  0  0  0  0  0  0  0  0  0  0
    1.8495    0.9530    0.0000 C   0  0  0  0  0  0  0  0  0  0  0  0
    2.9014   -0.1163    0.0000 C   0  0  0  0  0  0  0  0  0  0  0  0
    4.3534    0.2600    0.0000 N   0  0  0  0  0  0  0  0  0  0  0  0
    5.4054   -0.8093    0.0000 R   0  0  0  0  0  1  0  0  0  0  0  0
    4.7535    1.7057    0.0000 R   0  0  0  0  0  1  0  0  0  0  0  0
    2.5013   -1.5620    0.0000 C   0  0  0  0  0  0  0  0  0  0  0  0
    1.0493   -1.9383    0.0000 C   0  0  0  0  0  0  0  0  0  0  0  0
   -3.9586   -0.5524    0.0000 C   0  0  0  0  0  0  0  0  0  0  0  0
   -5.0106    0.5169    0.0000 R   0  0  0  0  0  1  0  0  0  0  0  0
   -4.3587   -1.9980    0.0000 O   0  0  0  0  0  0  0  0  0  0  0  0
  1  2  1  0
  2  3  1  0
  2  4  1  0
  4  5  1  6
  5  6  1  0
  6  7  1  0
  7  8  2  0
  8  9  1  0
  9 10  1  0
 10 11  1  0
 10 12  1  0
  9 13  2  0
 13 14  1  0
  4 15  1  0
 15 16  1  0
 15 17  2  0
 14  6  2  0
M  ISO  4   1   1  11   4  12   5  16   2
M  END
>  <symbol>  (757) 
D_mePhe_4NH2

>  <m_abbr>  (757) 
D_mePhe_4NH2

>  <m_name>  (757) 
NMe-D-4-aminophenylalanine

>  <m_type>  (757) 
aa

>  <m_subtype>  (757) 
modified

>  <m_Rgroups>  (757) 
[H],[OH],None,[H],[H]

>  <m_chem_types>  (757) 
1:backbone_n,2:backbone_c,4:amine_primary,5:amine_primary

>  <m_activation_policy>  (757) 
canonical-sites-v1

$$$$

     RDKit          2D

 16 16  0  0  0  0  0  0  0  0999 V2000
   -3.0227    2.2431    0.0000 R   0  0  0  0  0  1  0  0  0  0  0  0
   -1.8997    1.2486    0.0000 N   0  0  0  0  0  0  0  0  0  0  0  0
   -0.4770    1.7239    0.0000 C   0  0  0  0  0  0  0  0  0  0  0  0
   -2.1995   -0.2211    0.0000 C   0  0  0  0  0  0  0  0  0  0  0  0
   -1.0766   -1.2156    0.0000 C   0  0  0  0  0  0  0  0  0  0  0  0
    0.3462   -0.7404    0.0000 C   0  0  0  0  0  0  0  0  0  0  0  0
    0.6459    0.7294    0.0000 C   0  0  0  0  0  0  0  0  0  0  0  0
    2.0687    1.2046    0.0000 C   0  0  0  0  0  0  0  0  0  0  0  0
    3.1916    0.2101    0.0000 C   0  0  0  0  0  0  0  0  0  0  0  0
    4.6143    0.6854    0.0000 S   0  0  0  0  0  0  0  0  0  0  0  0
    5.7373   -0.3091    0.0000 C   0  0  0  0  0  0  0  0  0  0  0  0
    2.8918   -1.2596    0.0000 C   0  0  0  0  0  0  0  0  0  0  0  0
    1.4691   -1.7348    0.0000 C   0  0  0  0  0  0  0  0  0  0  0  0
   -3.6222   -0.6964    0.0000 C   0  0  0  0  0  0  0  0  0  0  0  0
   -4.7452    0.2981    0.0000 R   0  0  0  0  0  1  0  0  0  0  0  0
   -3.9220   -2.1661    0.0000 O   0  0  0  0  0  0  0  0  0  0  0  0
  1  2  1  0
  2  3  1  0
  2  4  1  0
  4  5  1  1
  5  6  1  0
  6  7  1  0
  7  8  2  0
  8  9  1  0
  9 10  1  0
 10 11  1  0
  9 12  2  0
 12 13  1  0
  4 14  1  0
 14 15  1  0
 14 16  2  0
 13  6  2  0
M  ISO  2   1   1  15   2
M  END
>  <symbol>  (758) 
mePhe_4SMe

>  <m_abbr>  (758) 
mePhe_4SMe

>  <m_name>  (758) 
NMe-L-4-(methylthio)phenylalanine

>  <m_type>  (758) 
aa

>  <m_subtype>  (758) 
modified

>  <m_Rgroups>  (758) 
[H],[OH]

>  <m_chem_types>  (758) 
1:backbone_n,2:backbone_c

>  <m_activation_policy>  (758) 
canonical-sites-v1

$$$$

     RDKit          2D

 16 16  0  0  0  0  0  0  0  0999 V2000
   -3.0227    2.2431    0.0000 R   0  0  0  0  0  1  0  0  0  0  0  0
   -1.8997    1.2486    0.0000 N   0  0  0  0  0  0  0  0  0  0  0  0
   -0.4770    1.7239    0.0000 C   0  0  0  0  0  0  0  0  0  0  0  0
   -2.1995   -0.2211    0.0000 C   0  0  0  0  0  0  0  0  0  0  0  0
   -1.0766   -1.2156    0.0000 C   0  0  0  0  0  0  0  0  0  0  0  0
    0.3462   -0.7404    0.0000 C   0  0  0  0  0  0  0  0  0  0  0  0
    0.6459    0.7294    0.0000 C   0  0  0  0  0  0  0  0  0  0  0  0
    2.0687    1.2046    0.0000 C   0  0  0  0  0  0  0  0  0  0  0  0
    3.1916    0.2101    0.0000 C   0  0  0  0  0  0  0  0  0  0  0  0
    4.6143    0.6854    0.0000 S   0  0  0  0  0  0  0  0  0  0  0  0
    5.7373   -0.3091    0.0000 C   0  0  0  0  0  0  0  0  0  0  0  0
    2.8918   -1.2596    0.0000 C   0  0  0  0  0  0  0  0  0  0  0  0
    1.4691   -1.7348    0.0000 C   0  0  0  0  0  0  0  0  0  0  0  0
   -3.6222   -0.6964    0.0000 C   0  0  0  0  0  0  0  0  0  0  0  0
   -4.7452    0.2981    0.0000 R   0  0  0  0  0  1  0  0  0  0  0  0
   -3.9220   -2.1661    0.0000 O   0  0  0  0  0  0  0  0  0  0  0  0
  1  2  1  0
  2  3  1  0
  2  4  1  0
  4  5  1  6
  5  6  1  0
  6  7  1  0
  7  8  2  0
  8  9  1  0
  9 10  1  0
 10 11  1  0
  9 12  2  0
 12 13  1  0
  4 14  1  0
 14 15  1  0
 14 16  2  0
 13  6  2  0
M  ISO  2   1   1  15   2
M  END
>  <symbol>  (759) 
D_mePhe_4SMe

>  <m_abbr>  (759) 
D_mePhe_4SMe

>  <m_name>  (759) 
NMe-D-4-(methylthio)phenylalanine

>  <m_type>  (759) 
aa

>  <m_subtype>  (759) 
modified

>  <m_Rgroups>  (759) 
[H],[OH]

>  <m_chem_types>  (759) 
1:backbone_n,2:backbone_c

>  <m_activation_policy>  (759) 
canonical-sites-v1

$$$$

     RDKit          2D

 15 15  0  0  0  0  0  0  0  0999 V2000
   -2.5933    2.2771    0.0000 R   0  0  0  0  0  1  0  0  0  0  0  0
   -1.4913    1.2594    0.0000 N   0  0  0  0  0  0  0  0  0  0  0  0
   -0.0590    1.7049    0.0000 C   0  0  0  0  0  0  0  0  0  0  0  0
   -1.8217   -0.2038    0.0000 C   0  0  0  0  0  0  0  0  0  0  0  0
   -0.7197   -1.2215    0.0000 C   0  0  0  0  0  0  0  0  0  0  0  0
    0.7126   -0.7760    0.0000 C   0  0  0  0  0  0  0  0  0  0  0  0
    1.0430    0.6872    0.0000 C   0  0  0  0  0  0  0  0  0  0  0  0
    2.4753    1.1326    0.0000 C   0  0  0  0  0  0  0  0  0  0  0  0
    3.5773    0.1149    0.0000 C   0  0  0  0  0  0  0  0  0  0  0  0
    5.0096    0.5604    0.0000 I   0  0  0  0  0  0  0  0  0  0  0  0
    3.2469   -1.3482    0.0000 C   0  0  0  0  0  0  0  0  0  0  0  0
    1.8146   -1.7937    0.0000 C   0  0  0  0  0  0  0  0  0  0  0  0
   -3.2540   -0.6493    0.0000 C   0  0  0  0  0  0  0  0  0  0  0  0
   -4.3559    0.3684    0.0000 R   0  0  0  0  0  1  0  0  0  0  0  0
   -3.5844   -2.1124    0.0000 O   0  0  0  0  0  0  0  0  0  0  0  0
  1  2  1  0
  2  3  1  0
  2  4  1  0
  4  5  1  1
  5  6  1  0
  6  7  1  0
  7  8  2  0
  8  9  1  0
  9 10  1  0
  9 11  2  0
 11 12  1  0
  4 13  1  0
 13 14  1  0
 13 15  2  0
 12  6  2  0
M  ISO  2   1   1  14   2
M  END
>  <symbol>  (760) 
mePhe_4I

>  <m_abbr>  (760) 
mePhe_4I

>  <m_name>  (760) 
NMe-L-4-iodophenylalanine

>  <m_type>  (760) 
aa

>  <m_subtype>  (760) 
modified

>  <m_Rgroups>  (760) 
[H],[OH]

>  <m_chem_types>  (760) 
1:backbone_n,2:backbone_c

>  <m_activation_policy>  (760) 
canonical-sites-v1

$$$$

     RDKit          2D

 15 15  0  0  0  0  0  0  0  0999 V2000
   -2.5933    2.2771    0.0000 R   0  0  0  0  0  1  0  0  0  0  0  0
   -1.4913    1.2594    0.0000 N   0  0  0  0  0  0  0  0  0  0  0  0
   -0.0590    1.7049    0.0000 C   0  0  0  0  0  0  0  0  0  0  0  0
   -1.8217   -0.2038    0.0000 C   0  0  0  0  0  0  0  0  0  0  0  0
   -0.7197   -1.2215    0.0000 C   0  0  0  0  0  0  0  0  0  0  0  0
    0.7126   -0.7760    0.0000 C   0  0  0  0  0  0  0  0  0  0  0  0
    1.0430    0.6872    0.0000 C   0  0  0  0  0  0  0  0  0  0  0  0
    2.4753    1.1326    0.0000 C   0  0  0  0  0  0  0  0  0  0  0  0
    3.5773    0.1149    0.0000 C   0  0  0  0  0  0  0  0  0  0  0  0
    5.0096    0.5604    0.0000 I   0  0  0  0  0  0  0  0  0  0  0  0
    3.2469   -1.3482    0.0000 C   0  0  0  0  0  0  0  0  0  0  0  0
    1.8146   -1.7937    0.0000 C   0  0  0  0  0  0  0  0  0  0  0  0
   -3.2540   -0.6493    0.0000 C   0  0  0  0  0  0  0  0  0  0  0  0
   -4.3559    0.3684    0.0000 R   0  0  0  0  0  1  0  0  0  0  0  0
   -3.5844   -2.1124    0.0000 O   0  0  0  0  0  0  0  0  0  0  0  0
  1  2  1  0
  2  3  1  0
  2  4  1  0
  4  5  1  6
  5  6  1  0
  6  7  1  0
  7  8  2  0
  8  9  1  0
  9 10  1  0
  9 11  2  0
 11 12  1  0
  4 13  1  0
 13 14  1  0
 13 15  2  0
 12  6  2  0
M  ISO  2   1   1  14   2
M  END
>  <symbol>  (761) 
D_mePhe_4I

>  <m_abbr>  (761) 
D_mePhe_4I

>  <m_name>  (761) 
NMe-D-4-iodophenylalanine

>  <m_type>  (761) 
aa

>  <m_subtype>  (761) 
modified

>  <m_Rgroups>  (761) 
[H],[OH]

>  <m_chem_types>  (761) 
1:backbone_n,2:backbone_c

>  <m_activation_policy>  (761) 
canonical-sites-v1

$$$$

     RDKit          2D

 16 16  0  0  0  0  0  0  0  0999 V2000
   -3.0766    2.1502    0.0000 R   0  0  0  0  0  1  0  0  0  0  0  0
   -1.8854    1.2385    0.0000 N   0  0  0  0  0  0  0  0  0  0  0  0
   -0.5003    1.8143    0.0000 C   0  0  0  0  0  0  0  0  0  0  0  0
   -2.0794   -0.2489    0.0000 C   0  0  0  0  0  0  0  0  0  0  0  0
   -0.8882   -1.1605    0.0000 C   0  0  0  0  0  0  0  0  0  0  0  0
    0.4969   -0.5848    0.0000 C   0  0  0  0  0  0  0  0  0  0  0  0
    0.6908    0.9026    0.0000 C   0  0  0  0  0  0  0  0  0  0  0  0
    2.0759    1.4784    0.0000 C   0  0  0  0  0  0  0  0  0  0  0  0
    3.2671    0.5667    0.0000 C   0  0  0  0  0  0  0  0  0  0  0  0
    4.6522    1.1425    0.0000 F   0  0  0  0  0  0  0  0  0  0  0  0
    3.0732   -0.9207    0.0000 C   0  0  0  0  0  0  0  0  0  0  0  0
    4.2643   -1.8323    0.0000 F   0  0  0  0  0  0  0  0  0  0  0  0
    1.6881   -1.4964    0.0000 C   0  0  0  0  0  0  0  0  0  0  0  0
   -3.4645   -0.8246    0.0000 C   0  0  0  0  0  0  0  0  0  0  0  0
   -4.6556    0.0870    0.0000 R   0  0  0  0  0  1  0  0  0  0  0  0
   -3.6584   -2.3121    0.0000 O   0  0  0  0  0  0  0  0  0  0  0  0
  1  2  1  0
  2  3  1  0
  2  4  1  0
  4  5  1  1
  5  6  1  0
  6  7  1  0
  7  8  2  0
  8  9  1  0
  9 10  1  0
  9 11  2  0
 11 12  1  0
 11 13  1  0
  4 14  1  0
 14 15  1  0
 14 16  2  0
 13  6  2  0
M  ISO  2   1   1  15   2
M  END
>  <symbol>  (762) 
mePhe_34diF

>  <m_abbr>  (762) 
mePhe_34diF

>  <m_name>  (762) 
NMe-L-3,4-difluorophenylalanine

>  <m_type>  (762) 
aa

>  <m_subtype>  (762) 
modified

>  <m_Rgroups>  (762) 
[H],[OH]

>  <m_chem_types>  (762) 
1:backbone_n,2:backbone_c

>  <m_activation_policy>  (762) 
canonical-sites-v1

$$$$

     RDKit          2D

 16 16  0  0  0  0  0  0  0  0999 V2000
   -3.0766    2.1502    0.0000 R   0  0  0  0  0  1  0  0  0  0  0  0
   -1.8854    1.2385    0.0000 N   0  0  0  0  0  0  0  0  0  0  0  0
   -0.5003    1.8143    0.0000 C   0  0  0  0  0  0  0  0  0  0  0  0
   -2.0794   -0.2489    0.0000 C   0  0  0  0  0  0  0  0  0  0  0  0
   -0.8882   -1.1605    0.0000 C   0  0  0  0  0  0  0  0  0  0  0  0
    0.4969   -0.5848    0.0000 C   0  0  0  0  0  0  0  0  0  0  0  0
    0.6908    0.9026    0.0000 C   0  0  0  0  0  0  0  0  0  0  0  0
    2.0759    1.4784    0.0000 C   0  0  0  0  0  0  0  0  0  0  0  0
    3.2671    0.5667    0.0000 C   0  0  0  0  0  0  0  0  0  0  0  0
    4.6522    1.1425    0.0000 F   0  0  0  0  0  0  0  0  0  0  0  0
    3.0732   -0.9207    0.0000 C   0  0  0  0  0  0  0  0  0  0  0  0
    4.2643   -1.8323    0.0000 F   0  0  0  0  0  0  0  0  0  0  0  0
    1.6881   -1.4964    0.0000 C   0  0  0  0  0  0  0  0  0  0  0  0
   -3.4645   -0.8246    0.0000 C   0  0  0  0  0  0  0  0  0  0  0  0
   -4.6556    0.0870    0.0000 R   0  0  0  0  0  1  0  0  0  0  0  0
   -3.6584   -2.3121    0.0000 O   0  0  0  0  0  0  0  0  0  0  0  0
  1  2  1  0
  2  3  1  0
  2  4  1  0
  4  5  1  6
  5  6  1  0
  6  7  1  0
  7  8  2  0
  8  9  1  0
  9 10  1  0
  9 11  2  0
 11 12  1  0
 11 13  1  0
  4 14  1  0
 14 15  1  0
 14 16  2  0
 13  6  2  0
M  ISO  2   1   1  15   2
M  END
>  <symbol>  (763) 
D_mePhe_34diF

>  <m_abbr>  (763) 
D_mePhe_34diF

>  <m_name>  (763) 
NMe-D-3,4-difluorophenylalanine

>  <m_type>  (763) 
aa

>  <m_subtype>  (763) 
modified

>  <m_Rgroups>  (763) 
[H],[OH]

>  <m_chem_types>  (763) 
1:backbone_n,2:backbone_c

>  <m_activation_policy>  (763) 
canonical-sites-v1

$$$$

     RDKit          2D

 19 20  0  0  0  0  0  0  0  0999 V2000
   -4.2475   -1.6475    0.0000 R   0  0  0  0  0  1  0  0  0  0  0  0
   -2.8651   -1.0651    0.0000 N   0  0  0  0  0  0  0  0  0  0  0  0
   -1.6696   -1.9710    0.0000 C   0  0  0  0  0  0  0  0  0  0  0  0
   -2.6783    0.4232    0.0000 C   0  0  0  0  0  0  0  0  0  0  0  0
   -1.2960    1.0056    0.0000 C   0  0  0  0  0  0  0  0  0  0  0  0
   -0.1005    0.0997    0.0000 C   0  0  0  0  0  0  0  0  0  0  0  0
   -0.1307   -1.4000    0.0000 C   0  0  0  0  0  0  0  0  0  0  0  0
    1.2863   -1.8921    0.0000 N   0  0  0  0  0  0  0  0  0  0  0  0
    1.7210   -3.3278    0.0000 R   0  0  0  0  0  1  0  0  0  0  0  0
    2.1922   -0.6966    0.0000 C   0  0  0  0  0  0  0  0  0  0  0  0
    3.6868   -0.5699    0.0000 C   0  0  0  0  0  0  0  0  0  0  0  0
    4.3244    0.7879    0.0000 C   0  0  0  0  0  0  0  0  0  0  0  0
    5.8190    0.9146    0.0000 Br  0  0  0  0  0  0  0  0  0  0  0  0
    3.4673    2.0189    0.0000 C   0  0  0  0  0  0  0  0  0  0  0  0
    1.9727    1.8922    0.0000 C   0  0  0  0  0  0  0  0  0  0  0  0
    1.3351    0.5344    0.0000 C   0  0  0  0  0  0  0  0  0  0  0  0
   -3.8739    1.3292    0.0000 C   0  0  0  0  0  0  0  0  0  0  0  0
   -5.2562    0.7468    0.0000 R   0  0  0  0  0  1  0  0  0  0  0  0
   -3.6871    2.8175    0.0000 O   0  0  0  0  0  0  0  0  0  0  0  0
  1  2  1  0
  2  3  1  0
  2  4  1  0
  4  5  1  6
  5  6  1  0
  6  7  2  0
  7  8  1  0
  8  9  1  0
  8 10  1  0
 10 11  1  0
 11 12  2  0
 12 13  1  0
 12 14  1  0
 14 15  2  0
 15 16  1  0
  4 17  1  0
 17 18  1  0
 17 19  2  0
 16  6  1  0
 16 10  2  0
M  ISO  3   1   1   9   4  18   2
M  END
>  <symbol>  (764) 
meTrp_5Br

>  <m_abbr>  (764) 
meTrp_5Br

>  <m_name>  (764) 
NMe-L-5-bromotryptophan

>  <m_type>  (764) 
aa

>  <m_subtype>  (764) 
modified

>  <m_Rgroups>  (764) 
[H],[OH],None,[H]

>  <m_chem_types>  (764) 
1:backbone_n,2:backbone_c,4:aromatic_nh

>  <m_activation_policy>  (764) 
canonical-sites-v1

$$$$

     RDKit          2D

 19 20  0  0  0  0  0  0  0  0999 V2000
   -4.2475   -1.6475    0.0000 R   0  0  0  0  0  1  0  0  0  0  0  0
   -2.8651   -1.0651    0.0000 N   0  0  0  0  0  0  0  0  0  0  0  0
   -1.6696   -1.9710    0.0000 C   0  0  0  0  0  0  0  0  0  0  0  0
   -2.6783    0.4232    0.0000 C   0  0  0  0  0  0  0  0  0  0  0  0
   -1.2960    1.0056    0.0000 C   0  0  0  0  0  0  0  0  0  0  0  0
   -0.1005    0.0997    0.0000 C   0  0  0  0  0  0  0  0  0  0  0  0
   -0.1307   -1.4000    0.0000 C   0  0  0  0  0  0  0  0  0  0  0  0
    1.2863   -1.8921    0.0000 N   0  0  0  0  0  0  0  0  0  0  0  0
    1.7210   -3.3278    0.0000 R   0  0  0  0  0  1  0  0  0  0  0  0
    2.1922   -0.6966    0.0000 C   0  0  0  0  0  0  0  0  0  0  0  0
    3.6868   -0.5699    0.0000 C   0  0  0  0  0  0  0  0  0  0  0  0
    4.3244    0.7879    0.0000 C   0  0  0  0  0  0  0  0  0  0  0  0
    5.8190    0.9146    0.0000 Br  0  0  0  0  0  0  0  0  0  0  0  0
    3.4673    2.0189    0.0000 C   0  0  0  0  0  0  0  0  0  0  0  0
    1.9727    1.8922    0.0000 C   0  0  0  0  0  0  0  0  0  0  0  0
    1.3351    0.5344    0.0000 C   0  0  0  0  0  0  0  0  0  0  0  0
   -3.8739    1.3292    0.0000 C   0  0  0  0  0  0  0  0  0  0  0  0
   -5.2562    0.7468    0.0000 R   0  0  0  0  0  1  0  0  0  0  0  0
   -3.6871    2.8175    0.0000 O   0  0  0  0  0  0  0  0  0  0  0  0
  1  2  1  0
  2  3  1  0
  2  4  1  0
  4  5  1  1
  5  6  1  0
  6  7  2  0
  7  8  1  0
  8  9  1  0
  8 10  1  0
 10 11  1  0
 11 12  2  0
 12 13  1  0
 12 14  1  0
 14 15  2  0
 15 16  1  0
  4 17  1  0
 17 18  1  0
 17 19  2  0
 16  6  1  0
 16 10  2  0
M  ISO  3   1   1   9   4  18   2
M  END
>  <symbol>  (765) 
D_meTrp_5Br

>  <m_abbr>  (765) 
D_meTrp_5Br

>  <m_name>  (765) 
NMe-D-5-bromotryptophan

>  <m_type>  (765) 
aa

>  <m_subtype>  (765) 
modified

>  <m_Rgroups>  (765) 
[H],[OH],None,[H]

>  <m_chem_types>  (765) 
1:backbone_n,2:backbone_c,4:aromatic_nh

>  <m_activation_policy>  (765) 
canonical-sites-v1

$$$$

     RDKit          2D

 17 17  0  0  0  0  0  0  0  0999 V2000
   -3.1840    1.9825    0.0000 R   0  0  0  0  0  1  0  0  0  0  0  0
   -1.8948    1.2158    0.0000 N   0  0  0  0  0  0  0  0  0  0  0  0
   -0.5862    1.9489    0.0000 C   0  0  0  0  0  0  0  0  0  0  0  0
   -1.9142   -0.2841    0.0000 C   0  0  0  0  0  0  0  0  0  0  0  0
   -0.6249   -1.0508    0.0000 C   0  0  0  0  0  0  0  0  0  0  0  0
    0.6837   -0.3177    0.0000 C   0  0  0  0  0  0  0  0  0  0  0  0
    0.7031    1.1822    0.0000 C   0  0  0  0  0  0  0  0  0  0  0  0
    2.0117    1.9153    0.0000 C   0  0  0  0  0  0  0  0  0  0  0  0
    2.0311    3.4152    0.0000 F   0  0  0  0  0  0  0  0  0  0  0  0
    3.3009    1.1486    0.0000 C   0  0  0  0  0  0  0  0  0  0  0  0
    3.2815   -0.3513    0.0000 C   0  0  0  0  0  0  0  0  0  0  0  0
    1.9729   -1.0844    0.0000 C   0  0  0  0  0  0  0  0  0  0  0  0
    1.9535   -2.5843    0.0000 O   0  0  0  0  0  0  0  0  0  0  0  0
    3.2428   -3.3510    0.0000 R   0  0  0  0  0  1  0  0  0  0  0  0
   -3.2228   -1.0173    0.0000 C   0  0  0  0  0  0  0  0  0  0  0  0
   -4.5120   -0.2505    0.0000 R   0  0  0  0  0  1  0  0  0  0  0  0
   -3.2422   -2.5171    0.0000 O   0  0  0  0  0  0  0  0  0  0  0  0
  1  2  1  0
  2  3  1  0
  2  4  1  0
  4  5  1  1
  5  6  1  0
  6  7  1  0
  7  8  2  0
  8  9  1  0
  8 10  1  0
 10 11  2  0
 11 12  1  0
 12 13  1  0
 13 14  1  0
  4 15  1  0
 15 16  1  0
 15 17  2  0
 12  6  2  0
M  ISO  3   1   1  14   4  16   2
M  END
>  <symbol>  (766) 
meTyr_3F

>  <m_abbr>  (766) 
meTyr_3F

>  <m_name>  (766) 
NMe-L-3-fluorotyrosine

>  <m_type>  (766) 
aa

>  <m_subtype>  (766) 
modified

>  <m_Rgroups>  (766) 
[H],[OH],None,[H]

>  <m_chem_types>  (766) 
1:backbone_n,2:backbone_c,4:aryl_phenol_o

>  <m_activation_policy>  (766) 
canonical-sites-v1

$$$$

     RDKit          2D

 17 17  0  0  0  0  0  0  0  0999 V2000
   -3.1840    1.9825    0.0000 R   0  0  0  0  0  1  0  0  0  0  0  0
   -1.8948    1.2158    0.0000 N   0  0  0  0  0  0  0  0  0  0  0  0
   -0.5862    1.9489    0.0000 C   0  0  0  0  0  0  0  0  0  0  0  0
   -1.9142   -0.2841    0.0000 C   0  0  0  0  0  0  0  0  0  0  0  0
   -0.6249   -1.0508    0.0000 C   0  0  0  0  0  0  0  0  0  0  0  0
    0.6837   -0.3177    0.0000 C   0  0  0  0  0  0  0  0  0  0  0  0
    0.7031    1.1822    0.0000 C   0  0  0  0  0  0  0  0  0  0  0  0
    2.0117    1.9153    0.0000 C   0  0  0  0  0  0  0  0  0  0  0  0
    2.0311    3.4152    0.0000 F   0  0  0  0  0  0  0  0  0  0  0  0
    3.3009    1.1486    0.0000 C   0  0  0  0  0  0  0  0  0  0  0  0
    3.2815   -0.3513    0.0000 C   0  0  0  0  0  0  0  0  0  0  0  0
    1.9729   -1.0844    0.0000 C   0  0  0  0  0  0  0  0  0  0  0  0
    1.9535   -2.5843    0.0000 O   0  0  0  0  0  0  0  0  0  0  0  0
    3.2428   -3.3510    0.0000 R   0  0  0  0  0  1  0  0  0  0  0  0
   -3.2228   -1.0173    0.0000 C   0  0  0  0  0  0  0  0  0  0  0  0
   -4.5120   -0.2505    0.0000 R   0  0  0  0  0  1  0  0  0  0  0  0
   -3.2422   -2.5171    0.0000 O   0  0  0  0  0  0  0  0  0  0  0  0
  1  2  1  0
  2  3  1  0
  2  4  1  0
  4  5  1  6
  5  6  1  0
  6  7  1  0
  7  8  2  0
  8  9  1  0
  8 10  1  0
 10 11  2  0
 11 12  1  0
 12 13  1  0
 13 14  1  0
  4 15  1  0
 15 16  1  0
 15 17  2  0
 12  6  2  0
M  ISO  3   1   1  14   4  16   2
M  END
>  <symbol>  (767) 
D_meTyr_3F

>  <m_abbr>  (767) 
D_meTyr_3F

>  <m_name>  (767) 
NMe-D-3-fluorotyrosine

>  <m_type>  (767) 
aa

>  <m_subtype>  (767) 
modified

>  <m_Rgroups>  (767) 
[H],[OH],None,[H]

>  <m_chem_types>  (767) 
1:backbone_n,2:backbone_c,4:aryl_phenol_o

>  <m_activation_policy>  (767) 
canonical-sites-v1

$$$$

     RDKit          2D

 15 14  0  0  0  0  0  0  0  0999 V2000
   -4.6412   -0.5736    0.0000 R   0  0  0  0  0  1  0  0  0  0  0  0
   -3.2600   -1.1586    0.0000 N   0  0  0  0  0  0  0  0  0  0  0  0
   -3.0760   -2.6473    0.0000 R   0  0  0  0  0  1  0  0  0  0  0  0
   -2.0628   -0.2549    0.0000 C   0  0  0  0  0  0  0  0  0  0  0  0
   -0.6815   -0.8399    0.0000 C   0  0  0  0  0  0  0  0  0  0  0  0
    0.5157    0.0637    0.0000 C   0  0  0  0  0  0  0  0  0  0  0  0
    0.3317    1.5524    0.0000 O   0  0  0  0  0  0  0  0  0  0  0  0
    1.8969   -0.5213    0.0000 O   0  0  0  0  0  0  0  0  0  0  0  0
    3.0941    0.3824    0.0000 C   0  0  0  0  0  0  0  0  0  0  0  0
    4.4754   -0.2026    0.0000 C   0  0  0  0  0  0  0  0  0  0  0  0
    5.6726    0.7011    0.0000 R   0  0  0  0  0  1  0  0  0  0  0  0
    4.6594   -1.6913    0.0000 C   0  0  0  0  0  0  0  0  0  0  0  0
   -2.2468    1.2337    0.0000 C   0  0  0  0  0  0  0  0  0  0  0  0
   -1.0495    2.1374    0.0000 R   0  0  0  0  0  1  0  0  0  0  0  0
   -3.6280    1.8187    0.0000 O   0  0  0  0  0  0  0  0  0  0  0  0
  1  2  1  0
  2  3  1  0
  2  4  1  0
  4  5  1  1
  5  6  1  0
  6  7  2  0
  6  8  1  0
  8  9  1  0
  9 10  1  0
 10 11  1  0
 10 12  2  0
  4 13  1  0
 13 14  1  0
 13 15  2  0
M  ISO  4   1   1   3   3  11   4  14   2
M  END
>  <symbol>  (768) 
D_Asp_OAll

>  <m_abbr>  (768) 
D_Asp_OAll

>  <m_name>  (768) 
D-aspartate allyl ester

>  <m_type>  (768) 
aa

>  <m_subtype>  (768) 
modified

>  <m_Rgroups>  (768) 
[H],[OH],[H],[H]

>  <m_chem_types>  (768) 
1:backbone_n,2:backbone_c,3:backbone_n_mod,4:terminal_alkene

>  <m_activation_policy>  (768) 
canonical-sites-v1

$$$$

     RDKit          2D

 17 18  0  0  0  0  0  0  0  0999 V2000
   -3.1526    2.3101    0.0000 R   0  0  0  0  0  1  0  0  0  0  0  0
   -2.0879    1.2534    0.0000 N   0  0  0  0  0  0  0  0  0  0  0  0
   -0.6405    1.6472    0.0000 R   0  0  0  0  0  1  0  0  0  0  0  0
   -2.4707   -0.1969    0.0000 C   0  0  0  0  0  0  0  0  0  0  0  0
   -1.4060   -1.2535    0.0000 C   0  0  0  0  0  0  0  0  0  0  0  0
    0.0414   -0.8598    0.0000 C   0  0  0  0  0  0  0  0  0  0  0  0
    1.2107   -1.7994    0.0000 N   0  0  0  0  0  0  0  0  0  0  0  0
    2.4656   -0.9777    0.0000 C   0  0  0  0  0  0  0  0  0  0  0  0
    3.9160   -1.3604    0.0000 C   0  0  0  0  0  0  0  0  0  0  0  0
    4.9726   -0.2957    0.0000 C   0  0  0  0  0  0  0  0  0  0  0  0
    4.5789    1.1517    0.0000 C   0  0  0  0  0  0  0  0  0  0  0  0
    3.1285    1.5344    0.0000 C   0  0  0  0  0  0  0  0  0  0  0  0
    2.0719    0.4697    0.0000 C   0  0  0  0  0  0  0  0  0  0  0  0
    0.5737    0.5426    0.0000 O   0  0  0  0  0  0  0  0  0  0  0  0
   -3.9181   -0.5906    0.0000 C   0  0  0  0  0  0  0  0  0  0  0  0
   -4.9827    0.4660    0.0000 R   0  0  0  0  0  1  0  0  0  0  0  0
   -4.3008   -2.0410    0.0000 O   0  0  0  0  0  0  0  0  0  0  0  0
  1  2  1  0
  2  3  1  0
  2  4  1  0
  4  5  1  6
  5  6  1  0
  6  7  2  0
  7  8  1  0
  8  9  2  0
  9 10  1  0
 10 11  2  0
 11 12  1  0
 12 13  2  0
 13 14  1  0
  4 15  1  0
 15 16  1  0
 15 17  2  0
 14  6  1  0
 13  8  1  0
M  ISO  3   1   1   3   3  16   2
M  END
>  <symbol>  (769) 
D_BenzoxAla

>  <m_abbr>  (769) 
D_BenzoxAla

>  <m_name>  (769) 
D-benzoxazol-2-yl-alanine

>  <m_type>  (769) 
aa

>  <m_subtype>  (769) 
modified

>  <m_Rgroups>  (769) 
[H],[OH],[H]

>  <m_chem_types>  (769) 
1:backbone_n,2:backbone_c,3:backbone_n_mod

>  <m_activation_policy>  (769) 
canonical-sites-v1

$$$$

     RDKit          2D

 10  9  0  0  0  0  0  0  0  0999 V2000
   -2.8417    0.4269    0.0000 R   0  0  0  0  0  1  0  0  0  0  0  0
   -1.7725   -0.6251    0.0000 N   0  0  0  0  0  0  0  0  0  0  0  0
   -2.1490   -2.0771    0.0000 R   0  0  0  0  0  1  0  0  0  0  0  0
   -0.3268   -0.2252    0.0000 C   0  0  0  0  0  0  0  0  0  0  0  0
    0.7424   -1.2772    0.0000 C   0  0  0  0  0  0  0  0  0  0  0  0
    2.1881   -0.8773    0.0000 C   0  0  0  0  0  0  0  0  0  0  0  0
    3.6338   -0.4773    0.0000 N   0  0  0  0  0  0  0  0  0  0  0  0
    0.0497    1.2268    0.0000 C   0  0  0  0  0  0  0  0  0  0  0  0
    1.4954    1.6267    0.0000 R   0  0  0  0  0  1  0  0  0  0  0  0
   -1.0195    2.2788    0.0000 O   0  0  0  0  0  0  0  0  0  0  0  0
  1  2  1  0
  2  3  1  0
  2  4  1  0
  4  5  1  1
  5  6  1  0
  6  7  3  0
  4  8  1  0
  8  9  1  0
  8 10  2  0
M  ISO  3   1   1   3   3   9   2
M  END
>  <symbol>  (770) 
D_CyanoAla

>  <m_abbr>  (770) 
D_CyanoAla

>  <m_name>  (770) 
D-2-amino-3-cyanopropionic acid

>  <m_type>  (770) 
aa

>  <m_subtype>  (770) 
modified

>  <m_Rgroups>  (770) 
[H],[OH],[H]

>  <m_chem_types>  (770) 
1:backbone_n,2:backbone_c,3:backbone_n_mod

>  <m_activation_policy>  (770) 
canonical-sites-v1

$$$$

     RDKit          2D

 13 12  0  0  0  0  0  0  0  0999 V2000
   -2.7847    2.4383    0.0000 R   0  0  0  0  0  1  0  0  0  0  0  0
   -2.7929    0.9383    0.0000 N   0  0  0  0  0  0  0  0  0  0  0  0
   -4.0960    0.1954    0.0000 R   0  0  0  0  0  1  0  0  0  0  0  0
   -1.4979    0.1812    0.0000 C   0  0  0  0  0  0  0  0  0  0  0  0
   -0.1948    0.9242    0.0000 C   0  0  0  0  0  0  0  0  0  0  0  0
    1.1001    0.1671    0.0000 S   0  0  0  0  0  0  0  0  0  0  0  0
    2.4032    0.9100    0.0000 C   0  0  0  0  0  0  0  0  0  0  0  0
    3.6982    0.1529    0.0000 C   0  0  0  0  0  0  0  0  0  0  0  0
    5.0013    0.8959    0.0000 R   0  0  0  0  0  1  0  0  0  0  0  0
    3.6900   -1.3470    0.0000 C   0  0  0  0  0  0  0  0  0  0  0  0
   -1.5061   -1.3187    0.0000 C   0  0  0  0  0  0  0  0  0  0  0  0
   -0.2112   -2.0758    0.0000 R   0  0  0  0  0  1  0  0  0  0  0  0
   -2.8092   -2.0617    0.0000 O   0  0  0  0  0  0  0  0  0  0  0  0
  1  2  1  0
  2  3  1  0
  2  4  1  0
  4  5  1  6
  5  6  1  0
  6  7  1  0
  7  8  1  0
  8  9  1  0
  8 10  2  0
  4 11  1  0
 11 12  1  0
 11 13  2  0
M  ISO  4   1   1   3   3   9   4  12   2
M  END
>  <symbol>  (771) 
D_Cys_All

>  <m_abbr>  (771) 
D_Cys_All

>  <m_name>  (771) 
D-S-allylcysteine

>  <m_type>  (771) 
aa

>  <m_subtype>  (771) 
modified

>  <m_Rgroups>  (771) 
[H],[OH],[H],[H]

>  <m_chem_types>  (771) 
1:backbone_n,2:backbone_c,3:backbone_n_mod,4:terminal_alkene

>  <m_activation_policy>  (771) 
canonical-sites-v1

$$$$

     RDKit          2D

 18 17  0  0  0  0  0  0  0  0999 V2000
   -5.0237   -1.8425    0.0000 R   0  0  0  0  0  1  0  0  0  0  0  0
   -3.5345   -1.6626    0.0000 N   0  0  0  0  0  0  0  0  0  0  0  0
   -2.6342   -2.8624    0.0000 R   0  0  0  0  0  1  0  0  0  0  0  0
   -2.9456   -0.2830    0.0000 C   0  0  0  0  0  0  0  0  0  0  0  0
   -1.4565   -0.1032    0.0000 C   0  0  0  0  0  0  0  0  0  0  0  0
   -0.8676    1.2764    0.0000 C   0  0  0  0  0  0  0  0  0  0  0  0
    0.6216    1.4562    0.0000 N   0  0  0  0  0  0  0  0  0  0  0  0
    1.2104    2.8358    0.0000 R   0  0  0  0  0  1  0  0  0  0  0  0
    1.5219    0.2565    0.0000 C   0  0  0  0  0  0  0  0  0  0  0  0
    0.9331   -1.1231    0.0000 O   0  0  0  0  0  0  0  0  0  0  0  0
    3.0111    0.4363    0.0000 O   0  0  0  0  0  0  0  0  0  0  0  0
    3.9114   -0.7634    0.0000 C   0  0  0  0  0  0  0  0  0  0  0  0
    5.4006   -0.5836    0.0000 C   0  0  0  0  0  0  0  0  0  0  0  0
    6.3009   -1.7833    0.0000 R   0  0  0  0  0  1  0  0  0  0  0  0
    5.9894    0.7960    0.0000 C   0  0  0  0  0  0  0  0  0  0  0  0
   -3.8460    0.9167    0.0000 C   0  0  0  0  0  0  0  0  0  0  0  0
   -3.2571    2.2963    0.0000 R   0  0  0  0  0  1  0  0  0  0  0  0
   -5.3352    0.7369    0.0000 O   0  0  0  0  0  0  0  0  0  0  0  0
  1  2  1  0
  2  3  1  0
  2  4  1  0
  4  5  1  1
  5  6  1  0
  6  7  1  0
  7  8  1  0
  7  9  1  0
  9 10  2  0
  9 11  1  0
 11 12  1  0
 12 13  1  0
 13 14  1  0
 13 15  2  0
  4 16  1  0
 16 17  1  0
 16 18  2  0
M  ISO  5   1   1   3   3   8   5  14   4  17   2
M  END
>  <symbol>  (772) 
D_Dab_Alloc

>  <m_abbr>  (772) 
D_Dab_Alloc

>  <m_name>  (772) 
D-Dab(Alloc) - 2,4-diaminobutyric acid N4-allyloxycarbonyl

>  <m_type>  (772) 
aa

>  <m_subtype>  (772) 
modified

>  <m_Rgroups>  (772) 
[H],[OH],[H],[H],[H]

>  <m_chem_types>  (772) 
1:backbone_n,2:backbone_c,3:backbone_n_mod,4:terminal_alkene,5:carbamate_nh

>  <m_activation_policy>  (772) 
canonical-sites-v1

$$$$

     RDKit          2D

 17 16  0  0  0  0  0  0  0  0999 V2000
   -4.0543   -2.0537    0.0000 R   0  0  0  0  0  1  0  0  0  0  0  0
   -2.7277   -1.3535    0.0000 N   0  0  0  0  0  0  0  0  0  0  0  0
   -1.4581   -2.1522    0.0000 R   0  0  0  0  0  1  0  0  0  0  0  0
   -2.6709    0.1455    0.0000 C   0  0  0  0  0  0  0  0  0  0  0  0
   -1.3444    0.8457    0.0000 C   0  0  0  0  0  0  0  0  0  0  0  0
   -0.0747    0.0470    0.0000 N   0  0  0  0  0  0  0  0  0  0  0  0
   -0.1315   -1.4519    0.0000 R   0  0  0  0  0  1  0  0  0  0  0  0
    1.2518    0.7472    0.0000 C   0  0  0  0  0  0  0  0  0  0  0  0
    1.3087    2.2461    0.0000 O   0  0  0  0  0  0  0  0  0  0  0  0
    2.5215   -0.0515    0.0000 O   0  0  0  0  0  0  0  0  0  0  0  0
    3.8481    0.6487    0.0000 C   0  0  0  0  0  0  0  0  0  0  0  0
    5.1177   -0.1500    0.0000 C   0  0  0  0  0  0  0  0  0  0  0  0
    6.4443    0.5503    0.0000 R   0  0  0  0  0  1  0  0  0  0  0  0
    5.0609   -1.6489    0.0000 C   0  0  0  0  0  0  0  0  0  0  0  0
   -3.9406    0.9442    0.0000 C   0  0  0  0  0  0  0  0  0  0  0  0
   -5.2671    0.2439    0.0000 R   0  0  0  0  0  1  0  0  0  0  0  0
   -3.8837    2.4431    0.0000 O   0  0  0  0  0  0  0  0  0  0  0  0
  1  2  1  0
  2  3  1  0
  2  4  1  0
  4  5  1  1
  5  6  1  0
  6  7  1  0
  6  8  1  0
  8  9  2  0
  8 10  1  0
 10 11  1  0
 11 12  1  0
 12 13  1  0
 12 14  2  0
  4 15  1  0
 15 16  1  0
 15 17  2  0
M  ISO  5   1   1   3   3   7   5  13   4  16   2
M  END
>  <symbol>  (773) 
D_Dap_Alloc

>  <m_abbr>  (773) 
D_Dap_Alloc

>  <m_name>  (773) 
D-Dap(Alloc) - 2,3-diaminopropionic acid N3-allyloxycarbonyl

>  <m_type>  (773) 
aa

>  <m_subtype>  (773) 
modified

>  <m_Rgroups>  (773) 
[H],[OH],[H],[H],[H]

>  <m_chem_types>  (773) 
1:backbone_n,2:backbone_c,3:backbone_n_mod,4:terminal_alkene,5:carbamate_nh

>  <m_activation_policy>  (773) 
canonical-sites-v1

$$$$

     RDKit          2D

 16 15  0  0  0  0  0  0  0  0999 V2000
   -5.2755   -0.1474    0.0000 R   0  0  0  0  0  1  0  0  0  0  0  0
   -3.9497   -0.8490    0.0000 N   0  0  0  0  0  0  0  0  0  0  0  0
   -3.8945   -2.3480    0.0000 R   0  0  0  0  0  1  0  0  0  0  0  0
   -2.6792   -0.0517    0.0000 C   0  0  0  0  0  0  0  0  0  0  0  0
   -1.3534   -0.7534    0.0000 C   0  0  0  0  0  0  0  0  0  0  0  0
   -0.0829    0.0439    0.0000 C   0  0  0  0  0  0  0  0  0  0  0  0
    1.2429   -0.6578    0.0000 C   0  0  0  0  0  0  0  0  0  0  0  0
    1.2981   -2.1568    0.0000 O   0  0  0  0  0  0  0  0  0  0  0  0
    2.5135    0.1395    0.0000 O   0  0  0  0  0  0  0  0  0  0  0  0
    3.8392   -0.5622    0.0000 C   0  0  0  0  0  0  0  0  0  0  0  0
    5.1098    0.2351    0.0000 C   0  0  0  0  0  0  0  0  0  0  0  0
    6.4355   -0.4666    0.0000 R   0  0  0  0  0  1  0  0  0  0  0  0
    5.0546    1.7340    0.0000 C   0  0  0  0  0  0  0  0  0  0  0  0
   -2.7344    1.4472    0.0000 C   0  0  0  0  0  0  0  0  0  0  0  0
   -1.4638    2.2445    0.0000 R   0  0  0  0  0  1  0  0  0  0  0  0
   -4.0601    2.1489    0.0000 O   0  0  0  0  0  0  0  0  0  0  0  0
  1  2  1  0
  2  3  1  0
  2  4  1  0
  4  5  1  1
  5  6  1  0
  6  7  1  0
  7  8  2  0
  7  9  1  0
  9 10  1  0
 10 11  1  0
 11 12  1  0
 11 13  2  0
  4 14  1  0
 14 15  1  0
 14 16  2  0
M  ISO  4   1   1   3   3  12   4  15   2
M  END
>  <symbol>  (774) 
D_Glu_OAll

>  <m_abbr>  (774) 
D_Glu_OAll

>  <m_name>  (774) 
D-glutamate allyl ester

>  <m_type>  (774) 
aa

>  <m_subtype>  (774) 
modified

>  <m_Rgroups>  (774) 
[H],[OH],[H],[H]

>  <m_chem_types>  (774) 
1:backbone_n,2:backbone_c,3:backbone_n_mod,4:terminal_alkene

>  <m_activation_policy>  (774) 
canonical-sites-v1

$$$$

     RDKit          2D

 18 19  0  0  0  0  0  0  0  0999 V2000
   -3.9967   -1.5786    0.0000 R   0  0  0  0  0  1  0  0  0  0  0  0
   -2.5756   -1.0986    0.0000 N   0  0  0  0  0  0  0  0  0  0  0  0
   -1.4493   -2.0892    0.0000 R   0  0  0  0  0  1  0  0  0  0  0  0
   -2.2807    0.3722    0.0000 C   0  0  0  0  0  0  0  0  0  0  0  0
   -0.8596    0.8522    0.0000 C   0  0  0  0  0  0  0  0  0  0  0  0
    0.2667   -0.1384    0.0000 C   0  0  0  0  0  0  0  0  0  0  0  0
   -0.0281   -1.6092    0.0000 N   0  0  0  0  0  0  0  0  0  0  0  0
    1.0981   -2.5999    0.0000 C   0  0  0  0  0  0  0  0  0  0  0  0
    2.5193   -2.1198    0.0000 C   0  0  0  0  0  0  0  0  0  0  0  0
    2.8141   -0.6491    0.0000 C   0  0  0  0  0  0  0  0  0  0  0  0
    4.2352   -0.1690    0.0000 C   0  0  0  0  0  0  0  0  0  0  0  0
    4.5300    1.3017    0.0000 C   0  0  0  0  0  0  0  0  0  0  0  0
    3.4037    2.2924    0.0000 C   0  0  0  0  0  0  0  0  0  0  0  0
    1.9826    1.8124    0.0000 C   0  0  0  0  0  0  0  0  0  0  0  0
    1.6878    0.3416    0.0000 C   0  0  0  0  0  0  0  0  0  0  0  0
   -3.4070    1.3629    0.0000 C   0  0  0  0  0  0  0  0  0  0  0  0
   -4.8281    0.8828    0.0000 R   0  0  0  0  0  1  0  0  0  0  0  0
   -3.1122    2.8336    0.0000 O   0  0  0  0  0  0  0  0  0  0  0  0
  1  2  1  0
  2  3  1  0
  2  4  1  0
  4  5  1  1
  5  6  1  0
  6  7  2  0
  7  8  1  0
  8  9  2  0
  9 10  1  0
 10 11  2  0
 11 12  1  0
 12 13  2  0
 13 14  1  0
 14 15  2  0
  4 16  1  0
 16 17  1  0
 16 18  2  0
 15  6  1  0
 15 10  1  0
M  ISO  3   1   1   3   3  17   2
M  END
>  <symbol>  (775) 
D_IsoQuiAla

>  <m_abbr>  (775) 
D_IsoQuiAla

>  <m_name>  (775) 
D-isoquinolin-1-yl-alanine

>  <m_type>  (775) 
aa

>  <m_subtype>  (775) 
modified

>  <m_Rgroups>  (775) 
[H],[OH],[H]

>  <m_chem_types>  (775) 
1:backbone_n,2:backbone_c,3:backbone_n_mod

>  <m_activation_policy>  (775) 
canonical-sites-v1

$$$$

     RDKit          2D

 14 13  0  0  0  0  0  0  0  0999 V2000
   -4.6155   -0.4823    0.0000 R   0  0  0  0  0  1  0  0  0  0  0  0
   -3.2318   -1.0614    0.0000 N   0  0  0  0  0  0  0  0  0  0  0  0
   -3.0416   -2.5493    0.0000 R   0  0  0  0  0  1  0  0  0  0  0  0
   -2.0384   -0.1527    0.0000 C   0  0  0  0  0  0  0  0  0  0  0  0
   -0.6548   -0.7318    0.0000 C   0  0  0  0  0  0  0  0  0  0  0  0
    0.5386    0.1769    0.0000 C   0  0  0  0  0  0  0  0  0  0  0  0
    1.9223   -0.4023    0.0000 C   0  0  0  0  0  0  0  0  0  0  0  0
    3.1157    0.5065    0.0000 C   0  0  0  0  0  0  0  0  0  0  0  0
    4.4994   -0.0727    0.0000 N   0  0  0  0  0  0  0  0  0  0  0  0
    5.6928    0.8361    0.0000 R   0  0  0  0  0  1  0  0  0  0  0  0
    4.6897   -1.5606    0.0000 C   0  0  0  0  0  0  0  0  0  0  0  0
   -2.2287    1.3352    0.0000 C   0  0  0  0  0  0  0  0  0  0  0  0
   -1.0353    2.2439    0.0000 R   0  0  0  0  0  1  0  0  0  0  0  0
   -3.6124    1.9144    0.0000 O   0  0  0  0  0  0  0  0  0  0  0  0
  1  2  1  0
  2  3  1  0
  2  4  1  0
  4  5  1  1
  5  6  1  0
  6  7  1  0
  7  8  1  0
  8  9  1  0
  9 10  1  0
  9 11  1  0
  4 12  1  0
 12 13  1  0
 12 14  2  0
M  ISO  4   1   1   3   3  10   4  13   2
M  END
>  <symbol>  (776) 
D_Lys_5Me

>  <m_abbr>  (776) 
D_Lys_5Me

>  <m_name>  (776) 
D-N-epsilon-methyllysine

>  <m_type>  (776) 
aa

>  <m_subtype>  (776) 
modified

>  <m_Rgroups>  (776) 
[H],[OH],[H],[H]

>  <m_chem_types>  (776) 
1:backbone_n,2:backbone_c,3:backbone_n_mod,4:amine_secondary

>  <m_activation_policy>  (776) 
canonical-sites-v1

$$$$

     RDKit          2D

 14 13  0  0  0  0  0  0  0  0999 V2000
   -4.6155   -0.4823    0.0000 R   0  0  0  0  0  1  0  0  0  0  0  0
   -3.2318   -1.0614    0.0000 N   0  0  0  0  0  0  0  0  0  0  0  0
   -3.0416   -2.5493    0.0000 R   0  0  0  0  0  1  0  0  0  0  0  0
   -2.0384   -0.1527    0.0000 C   0  0  0  0  0  0  0  0  0  0  0  0
   -0.6548   -0.7318    0.0000 C   0  0  0  0  0  0  0  0  0  0  0  0
    0.5386    0.1769    0.0000 C   0  0  0  0  0  0  0  0  0  0  0  0
    1.9223   -0.4023    0.0000 C   0  0  0  0  0  0  0  0  0  0  0  0
    3.1157    0.5065    0.0000 C   0  0  0  0  0  0  0  0  0  0  0  0
    4.4994   -0.0727    0.0000 N   0  0  0  0  0  0  0  0  0  0  0  0
    5.6928    0.8361    0.0000 C   0  0  0  0  0  0  0  0  0  0  0  0
    4.6897   -1.5606    0.0000 C   0  0  0  0  0  0  0  0  0  0  0  0
   -2.2287    1.3352    0.0000 C   0  0  0  0  0  0  0  0  0  0  0  0
   -1.0353    2.2439    0.0000 R   0  0  0  0  0  1  0  0  0  0  0  0
   -3.6124    1.9144    0.0000 O   0  0  0  0  0  0  0  0  0  0  0  0
  1  2  1  0
  2  3  1  0
  2  4  1  0
  4  5  1  1
  5  6  1  0
  6  7  1  0
  7  8  1  0
  8  9  1  0
  9 10  1  0
  9 11  1  0
  4 12  1  0
 12 13  1  0
 12 14  2  0
M  ISO  3   1   1   3   3  13   2
M  END
>  <symbol>  (777) 
D_Lys_5diMe

>  <m_abbr>  (777) 
D_Lys_5diMe

>  <m_name>  (777) 
D-N-epsilon-dimethyllysine

>  <m_type>  (777) 
aa

>  <m_subtype>  (777) 
modified

>  <m_Rgroups>  (777) 
[H],[OH],[H]

>  <m_chem_types>  (777) 
1:backbone_n,2:backbone_c,3:backbone_n_mod

>  <m_activation_policy>  (777) 
canonical-sites-v1

$$$$

     RDKit          2D

 20 19  0  0  0  0  0  0  0  0999 V2000
   -6.4543   -1.5999    0.0000 R   0  0  0  0  0  1  0  0  0  0  0  0
   -4.9575   -1.6968    0.0000 N   0  0  0  0  0  0  0  0  0  0  0  0
   -4.2930   -3.0416    0.0000 R   0  0  0  0  0  1  0  0  0  0  0  0
   -4.1251   -0.4489    0.0000 C   0  0  0  0  0  0  0  0  0  0  0  0
   -2.6283   -0.5458    0.0000 C   0  0  0  0  0  0  0  0  0  0  0  0
   -1.7959    0.7021    0.0000 C   0  0  0  0  0  0  0  0  0  0  0  0
   -0.2990    0.6051    0.0000 C   0  0  0  0  0  0  0  0  0  0  0  0
    0.5333    1.8530    0.0000 C   0  0  0  0  0  0  0  0  0  0  0  0
    2.0302    1.7561    0.0000 N   0  0  0  0  0  0  0  0  0  0  0  0
    2.8625    3.0040    0.0000 R   0  0  0  0  0  1  0  0  0  0  0  0
    2.6947    0.4113    0.0000 C   0  0  0  0  0  0  0  0  0  0  0  0
    1.8623   -0.8365    0.0000 O   0  0  0  0  0  0  0  0  0  0  0  0
    4.1916    0.3144    0.0000 O   0  0  0  0  0  0  0  0  0  0  0  0
    4.8561   -1.0303    0.0000 C   0  0  0  0  0  0  0  0  0  0  0  0
    6.3529   -1.1273    0.0000 C   0  0  0  0  0  0  0  0  0  0  0  0
    7.0175   -2.4720    0.0000 R   0  0  0  0  0  1  0  0  0  0  0  0
    7.1853    0.1206    0.0000 C   0  0  0  0  0  0  0  0  0  0  0  0
   -4.7896    0.8959    0.0000 C   0  0  0  0  0  0  0  0  0  0  0  0
   -3.9573    2.1437    0.0000 R   0  0  0  0  0  1  0  0  0  0  0  0
   -6.2865    0.9928    0.0000 O   0  0  0  0  0  0  0  0  0  0  0  0
  1  2  1  0
  2  3  1  0
  2  4  1  0
  4  5  1  1
  5  6  1  0
  6  7  1  0
  7  8  1  0
  8  9  1  0
  9 10  1  0
  9 11  1  0
 11 12  2  0
 11 13  1  0
 13 14  1  0
 14 15  1  0
 15 16  1  0
 15 17  2  0
  4 18  1  0
 18 19  1  0
 18 20  2  0
M  ISO  5   1   1   3   3  10   5  16   4  19   2
M  END
>  <symbol>  (778) 
D_Lys_Alloc

>  <m_abbr>  (778) 
D_Lys_Alloc

>  <m_name>  (778) 
D-Lys(Alloc) - lysine N-epsilon-allyloxycarbonyl

>  <m_type>  (778) 
aa

>  <m_subtype>  (778) 
modified

>  <m_Rgroups>  (778) 
[H],[OH],[H],[H],[H]

>  <m_chem_types>  (778) 
1:backbone_n,2:backbone_c,3:backbone_n_mod,4:terminal_alkene,5:carbamate_nh

>  <m_activation_policy>  (778) 
canonical-sites-v1

$$$$

     RDKit          2D

 22 22  0  0  0  0  0  0  0  0999 V2000
    5.7714    2.6980    0.0000 R   0  0  0  0  0  1  0  0  0  0  0  0
    4.6523    1.6992    0.0000 N   0  0  0  0  0  0  0  0  0  0  0  0
    3.2278    2.1688    0.0000 R   0  0  0  0  0  1  0  0  0  0  0  0
    4.9579    0.2306    0.0000 C   0  0  0  0  0  0  0  0  0  0  0  0
    3.8388   -0.7683    0.0000 C   0  0  0  0  0  0  0  0  0  0  0  0
    2.4143   -0.2986    0.0000 C   0  0  0  0  0  0  0  0  0  0  0  0
    1.2952   -1.2975    0.0000 C   0  0  0  0  0  0  0  0  0  0  0  0
   -0.1293   -0.8278    0.0000 C   0  0  0  0  0  0  0  0  0  0  0  0
   -1.2484   -1.8267    0.0000 N   0  0  0  0  0  0  0  0  0  0  0  0
   -0.9428   -3.2952    0.0000 R   0  0  0  0  0  1  0  0  0  0  0  0
   -2.6729   -1.3570    0.0000 C   0  0  0  0  0  0  0  0  0  0  0  0
   -3.7920   -2.3559    0.0000 O   0  0  0  0  0  0  0  0  0  0  0  0
   -2.9785    0.1116    0.0000 O   0  0  0  0  0  0  0  0  0  0  0  0
   -4.4031    0.5812    0.0000 C   0  0  0  0  0  0  0  0  0  0  0  0
   -5.5221   -0.4176    0.0000 C   0  0  0  0  0  0  0  0  0  0  0  0
   -6.9467    0.0520    0.0000 C   0  0  0  0  0  0  0  0  0  0  0  0
   -7.2522    1.5206    0.0000 C   0  0  0  0  0  0  0  0  0  0  0  0
   -6.1332    2.5195    0.0000 C   0  0  0  0  0  0  0  0  0  0  0  0
   -4.7086    2.0498    0.0000 C   0  0  0  0  0  0  0  0  0  0  0  0
    6.3825   -0.2391    0.0000 C   0  0  0  0  0  0  0  0  0  0  0  0
    7.5015    0.7598    0.0000 R   0  0  0  0  0  1  0  0  0  0  0  0
    6.6880   -1.7076    0.0000 O   0  0  0  0  0  0  0  0  0  0  0  0
  1  2  1  0
  2  3  1  0
  2  4  1  0
  4  5  1  1
  5  6  1  0
  6  7  1  0
  7  8  1  0
  8  9  1  0
  9 10  1  0
  9 11  1  0
 11 12  2  0
 11 13  1  0
 13 14  1  0
 14 15  2  0
 15 16  1  0
 16 17  2  0
 17 18  1  0
 18 19  2  0
  4 20  1  0
 20 21  1  0
 20 22  2  0
 19 14  1  0
M  ISO  4   1   1   3   3  10   4  21   2
M  END
>  <symbol>  (779) 
D_Lys_Cbz

>  <m_abbr>  (779) 
D_Lys_Cbz

>  <m_name>  (779) 
D-Lys(Cbz) - lysine N-epsilon-benzyloxycarbonyl

>  <m_type>  (779) 
aa

>  <m_subtype>  (779) 
modified

>  <m_Rgroups>  (779) 
[H],[OH],[H],[H]

>  <m_chem_types>  (779) 
1:backbone_n,2:backbone_c,3:backbone_n_mod,4:carbamate_nh

>  <m_activation_policy>  (779) 
canonical-sites-v1

$$$$

     RDKit          2D

 32 34  0  0  0  0  0  0  0  0999 V2000
    7.2478   -1.9235    0.0000 R   0  0  0  0  0  1  0  0  0  0  0  0
    5.9562   -1.1607    0.0000 N   0  0  0  0  0  0  0  0  0  0  0  0
    4.6498   -1.8977    0.0000 R   0  0  0  0  0  1  0  0  0  0  0  0
    5.9711    0.3393    0.0000 C   0  0  0  0  0  0  0  0  0  0  0  0
    4.6796    1.1021    0.0000 C   0  0  0  0  0  0  0  0  0  0  0  0
    3.3732    0.3650    0.0000 C   0  0  0  0  0  0  0  0  0  0  0  0
    2.0816    1.1279    0.0000 C   0  0  0  0  0  0  0  0  0  0  0  0
    0.7752    0.3908    0.0000 C   0  0  0  0  0  0  0  0  0  0  0  0
   -0.5163    1.1536    0.0000 N   0  0  0  0  0  0  0  0  0  0  0  0
   -1.8227    0.4165    0.0000 C   0  0  0  0  0  0  0  0  0  0  0  0
   -2.5598    1.7229    0.0000 C   0  0  0  0  0  0  0  0  0  0  0  0
   -1.7970    3.0145    0.0000 C   0  0  0  0  0  0  0  0  0  0  0  0
   -2.5341    4.3209    0.0000 C   0  0  0  0  0  0  0  0  0  0  0  0
   -4.0340    4.3358    0.0000 C   0  0  0  0  0  0  0  0  0  0  0  0
   -4.7968    3.0442    0.0000 C   0  0  0  0  0  0  0  0  0  0  0  0
   -4.0597    1.7378    0.0000 C   0  0  0  0  0  0  0  0  0  0  0  0
   -1.0856   -0.8899    0.0000 C   0  0  0  0  0  0  0  0  0  0  0  0
   -1.8485   -2.1814    0.0000 C   0  0  0  0  0  0  0  0  0  0  0  0
   -1.1114   -3.4878    0.0000 C   0  0  0  0  0  0  0  0  0  0  0  0
    0.3885   -3.5027    0.0000 C   0  0  0  0  0  0  0  0  0  0  0  0
    1.1514   -2.2112    0.0000 C   0  0  0  0  0  0  0  0  0  0  0  0
    0.4143   -0.9048    0.0000 C   0  0  0  0  0  0  0  0  0  0  0  0
   -3.1291   -0.3206    0.0000 C   0  0  0  0  0  0  0  0  0  0  0  0
   -4.4207    0.4423    0.0000 C   0  0  0  0  0  0  0  0  0  0  0  0
   -5.7271   -0.2948    0.0000 C   0  0  0  0  0  0  0  0  0  0  0  0
   -5.7420   -1.7947    0.0000 C   0  0  0  0  0  0  0  0  0  0  0  0
   -7.0484   -2.5318    0.0000 C   0  0  0  0  0  0  0  0  0  0  0  0
   -4.4504   -2.5576    0.0000 C   0  0  0  0  0  0  0  0  0  0  0  0
   -3.1440   -1.8205    0.0000 C   0  0  0  0  0  0  0  0  0  0  0  0
    7.2775    1.0764    0.0000 C   0  0  0  0  0  0  0  0  0  0  0  0
    8.5691    0.3135    0.0000 R   0  0  0  0  0  1  0  0  0  0  0  0
    7.2924    2.5763    0.0000 O   0  0  0  0  0  0  0  0  0  0  0  0
  1  2  1  0
  2  3  1  0
  2  4  1  0
  4  5  1  6
  5  6  1  0
  6  7  1  0
  7  8  1  0
  8  9  1  0
  9 10  1  0
 10 11  1  0
 11 12  4  0
 12 13  4  0
 13 14  4  0
 14 15  4  0
 15 16  4  0
 10 17  1  0
 17 18  4  0
 18 19  4  0
 19 20  4  0
 20 21  4  0
 21 22  4  0
 10 23  1  0
 23 24  4  0
 24 25  4  0
 25 26  4  0
 26 27  1  0
 26 28  4  0
 28 29  4  0
  4 30  1  0
 30 31  1  0
 30 32  2  0
 16 11  4  0
 22 17  4  0
 29 23  4  0
M  ISO  3   1   1   3   3  31   2
M  END
>  <symbol>
D_Lys_Mtt

>  <m_abbr>
D_Lys_Mtt

>  <m_name>
D-Lys(Mtt) - lysine N-epsilon-4-methyltrityl

>  <m_type>
aa

>  <m_subtype>
modified

>  <m_Rgroups>
[H],[OH],[H]

>  <m_chem_types>
1:backbone_n,2:backbone_c,3:backbone_n_mod

>  <m_activation_policy>
canonical-sites-v1

$$$$

     RDKit          2D

 19 18  0  0  0  0  0  0  0  0999 V2000
   -5.8387    1.1749    0.0000 R   0  0  0  0  0  1  0  0  0  0  0  0
   -4.9572   -0.0388    0.0000 N   0  0  0  0  0  0  0  0  0  0  0  0
   -5.5676   -1.4090    0.0000 R   0  0  0  0  0  1  0  0  0  0  0  0
   -3.4654    0.1177    0.0000 C   0  0  0  0  0  0  0  0  0  0  0  0
   -2.5840   -1.0960    0.0000 C   0  0  0  0  0  0  0  0  0  0  0  0
   -1.0921   -0.9395    0.0000 C   0  0  0  0  0  0  0  0  0  0  0  0
   -0.2107   -2.1532    0.0000 C   0  0  0  0  0  0  0  0  0  0  0  0
    1.2811   -1.9967    0.0000 N   0  0  0  0  0  0  0  0  0  0  0  0
    2.1625   -3.2104    0.0000 R   0  0  0  0  0  1  0  0  0  0  0  0
    1.8915   -0.6265    0.0000 C   0  0  0  0  0  0  0  0  0  0  0  0
    1.0100    0.5872    0.0000 O   0  0  0  0  0  0  0  0  0  0  0  0
    3.3833   -0.4700    0.0000 O   0  0  0  0  0  0  0  0  0  0  0  0
    3.9937    0.9002    0.0000 C   0  0  0  0  0  0  0  0  0  0  0  0
    5.4855    1.0567    0.0000 C   0  0  0  0  0  0  0  0  0  0  0  0
    6.0959    2.4269    0.0000 R   0  0  0  0  0  1  0  0  0  0  0  0
    6.3669   -0.1570    0.0000 C   0  0  0  0  0  0  0  0  0  0  0  0
   -2.8550    1.4879    0.0000 C   0  0  0  0  0  0  0  0  0  0  0  0
   -1.3632    1.6444    0.0000 R   0  0  0  0  0  1  0  0  0  0  0  0
   -3.7365    2.7016    0.0000 O   0  0  0  0  0  0  0  0  0  0  0  0
  1  2  1  0
  2  3  1  0
  2  4  1  0
  4  5  1  1
  5  6  1  0
  6  7  1  0
  7  8  1  0
  8  9  1  0
  8 10  1  0
 10 11  2  0
 10 12  1  0
 12 13  1  0
 13 14  1  0
 14 15  1  0
 14 16  2  0
  4 17  1  0
 17 18  1  0
 17 19  2  0
M  ISO  5   1   1   3   3   9   5  15   4  18   2
M  END
>  <symbol>  (781) 
D_Orn_Alloc

>  <m_abbr>  (781) 
D_Orn_Alloc

>  <m_name>  (781) 
D-Orn(Alloc) - ornithine N-delta-allyloxycarbonyl

>  <m_type>  (781) 
aa

>  <m_subtype>  (781) 
modified

>  <m_Rgroups>  (781) 
[H],[OH],[H],[H],[H]

>  <m_chem_types>  (781) 
1:backbone_n,2:backbone_c,3:backbone_n_mod,4:terminal_alkene,5:carbamate_nh

>  <m_activation_policy>  (781) 
canonical-sites-v1

$$$$

     RDKit          2D

 21 21  0  0  0  0  0  0  0  0999 V2000
    6.3266   -1.1471    0.0000 R   0  0  0  0  0  1  0  0  0  0  0  0
    4.8458   -0.9080    0.0000 N   0  0  0  0  0  0  0  0  0  0  0  0
    3.8983   -2.0708    0.0000 R   0  0  0  0  0  1  0  0  0  0  0  0
    4.3125    0.4940    0.0000 C   0  0  0  0  0  0  0  0  0  0  0  0
    2.8317    0.7332    0.0000 C   0  0  0  0  0  0  0  0  0  0  0  0
    1.8842   -0.4296    0.0000 C   0  0  0  0  0  0  0  0  0  0  0  0
    0.4034   -0.1905    0.0000 C   0  0  0  0  0  0  0  0  0  0  0  0
   -0.5442   -1.3533    0.0000 N   0  0  0  0  0  0  0  0  0  0  0  0
   -0.0109   -2.7553    0.0000 R   0  0  0  0  0  1  0  0  0  0  0  0
   -2.0250   -1.1141    0.0000 C   0  0  0  0  0  0  0  0  0  0  0  0
   -2.9725   -2.2770    0.0000 O   0  0  0  0  0  0  0  0  0  0  0  0
   -2.5583    0.2879    0.0000 O   0  0  0  0  0  0  0  0  0  0  0  0
   -4.0391    0.5270    0.0000 C   0  0  0  0  0  0  0  0  0  0  0  0
   -4.9866   -0.6358    0.0000 C   0  0  0  0  0  0  0  0  0  0  0  0
   -6.4674   -0.3966    0.0000 C   0  0  0  0  0  0  0  0  0  0  0  0
   -7.0007    1.0054    0.0000 C   0  0  0  0  0  0  0  0  0  0  0  0
   -6.0532    2.1682    0.0000 C   0  0  0  0  0  0  0  0  0  0  0  0
   -4.5724    1.9290    0.0000 C   0  0  0  0  0  0  0  0  0  0  0  0
    5.2600    1.6569    0.0000 C   0  0  0  0  0  0  0  0  0  0  0  0
    6.7409    1.4177    0.0000 R   0  0  0  0  0  1  0  0  0  0  0  0
    4.7268    3.0589    0.0000 O   0  0  0  0  0  0  0  0  0  0  0  0
  1  2  1  0
  2  3  1  0
  2  4  1  0
  4  5  1  6
  5  6  1  0
  6  7  1  0
  7  8  1  0
  8  9  1  0
  8 10  1  0
 10 11  2  0
 10 12  1  0
 12 13  1  0
 13 14  2  0
 14 15  1  0
 15 16  2  0
 16 17  1  0
 17 18  2  0
  4 19  1  0
 19 20  1  0
 19 21  2  0
 18 13  1  0
M  ISO  4   1   1   3   3   9   4  20   2
M  END
>  <symbol>  (782) 
D_Orn_Cbz

>  <m_abbr>  (782) 
D_Orn_Cbz

>  <m_name>  (782) 
D-Orn(Cbz) - ornithine N-delta-benzyloxycarbonyl

>  <m_type>  (782) 
aa

>  <m_subtype>  (782) 
modified

>  <m_Rgroups>  (782) 
[H],[OH],[H],[H]

>  <m_chem_types>  (782) 
1:backbone_n,2:backbone_c,3:backbone_n_mod,4:carbamate_nh

>  <m_activation_policy>  (782) 
canonical-sites-v1

$$$$

     RDKit          2D

 18 18  0  0  0  0  0  0  0  0999 V2000
   -3.7898    2.0459    0.0000 R   0  0  0  0  0  1  0  0  0  0  0  0
   -2.5342    1.2253    0.0000 N   0  0  0  0  0  0  0  0  0  0  0  0
   -1.1957    1.9023    0.0000 R   0  0  0  0  0  1  0  0  0  0  0  0
   -2.6171   -0.2724    0.0000 C   0  0  0  0  0  0  0  0  0  0  0  0
   -1.3615   -1.0931    0.0000 C   0  0  0  0  0  0  0  0  0  0  0  0
   -0.0230   -0.4160    0.0000 C   0  0  0  0  0  0  0  0  0  0  0  0
    0.0599    1.0817    0.0000 C   0  0  0  0  0  0  0  0  0  0  0  0
    1.3984    1.7587    0.0000 C   0  0  0  0  0  0  0  0  0  0  0  0
    2.6540    0.9381    0.0000 C   0  0  0  0  0  0  0  0  0  0  0  0
    3.9925    1.6151    0.0000 O   0  0  0  0  0  0  0  0  0  0  0  0
    5.2481    0.7945    0.0000 C   0  0  0  0  0  0  0  0  0  0  0  0
    2.5711   -0.5596    0.0000 C   0  0  0  0  0  0  0  0  0  0  0  0
    3.8267   -1.3803    0.0000 O   0  0  0  0  0  0  0  0  0  0  0  0
    3.7438   -2.8780    0.0000 C   0  0  0  0  0  0  0  0  0  0  0  0
    1.2326   -1.2367    0.0000 C   0  0  0  0  0  0  0  0  0  0  0  0
   -3.9556   -0.9495    0.0000 C   0  0  0  0  0  0  0  0  0  0  0  0
   -5.2112   -0.1288    0.0000 R   0  0  0  0  0  1  0  0  0  0  0  0
   -4.0385   -2.4472    0.0000 O   0  0  0  0  0  0  0  0  0  0  0  0
  1  2  1  0
  2  3  1  0
  2  4  1  0
  4  5  1  6
  5  6  1  0
  6  7  1  0
  7  8  2  0
  8  9  1  0
  9 10  1  0
 10 11  1  0
  9 12  2  0
 12 13  1  0
 13 14  1  0
 12 15  1  0
  4 16  1  0
 16 17  1  0
 16 18  2  0
 15  6  2  0
M  ISO  3   1   1   3   3  17   2
M  END
>  <symbol>  (783) 
D_Phe_34diOMe

>  <m_abbr>  (783) 
D_Phe_34diOMe

>  <m_name>  (783) 
D-3,4-dimethoxyphenylalanine

>  <m_type>  (783) 
aa

>  <m_subtype>  (783) 
modified

>  <m_Rgroups>  (783) 
[H],[OH],[H]

>  <m_chem_types>  (783) 
1:backbone_n,2:backbone_c,3:backbone_n_mod

>  <m_activation_policy>  (783) 
canonical-sites-v1

$$$$

     RDKit          2D

 17 17  0  0  0  0  0  0  0  0999 V2000
   -3.1584    2.3389    0.0000 R   0  0  0  0  0  1  0  0  0  0  0  0
   -2.1065    1.2696    0.0000 N   0  0  0  0  0  0  0  0  0  0  0  0
   -0.6545    1.6460    0.0000 R   0  0  0  0  0  1  0  0  0  0  0  0
   -2.5066   -0.1760    0.0000 C   0  0  0  0  0  0  0  0  0  0  0  0
   -1.4547   -1.2454    0.0000 C   0  0  0  0  0  0  0  0  0  0  0  0
   -0.0026   -0.8690    0.0000 C   0  0  0  0  0  0  0  0  0  0  0  0
    0.3974    0.5766    0.0000 C   0  0  0  0  0  0  0  0  0  0  0  0
    1.8495    0.9530    0.0000 C   0  0  0  0  0  0  0  0  0  0  0  0
    2.9014   -0.1163    0.0000 C   0  0  0  0  0  0  0  0  0  0  0  0
    4.3534    0.2600    0.0000 C   0  0  0  0  0  0  0  0  0  0  0  0
    5.4054   -0.8093    0.0000 C   0  0  0  0  0  0  0  0  0  0  0  0
    4.7535    1.7057    0.0000 C   0  0  0  0  0  0  0  0  0  0  0  0
    2.5013   -1.5620    0.0000 C   0  0  0  0  0  0  0  0  0  0  0  0
    1.0493   -1.9383    0.0000 C   0  0  0  0  0  0  0  0  0  0  0  0
   -3.9586   -0.5524    0.0000 C   0  0  0  0  0  0  0  0  0  0  0  0
   -5.0106    0.5169    0.0000 R   0  0  0  0  0  1  0  0  0  0  0  0
   -4.3587   -1.9980    0.0000 O   0  0  0  0  0  0  0  0  0  0  0  0
  1  2  1  0
  2  3  1  0
  2  4  1  0
  4  5  1  6
  5  6  1  0
  6  7  1  0
  7  8  2  0
  8  9  1  0
  9 10  1  0
 10 11  1  0
 10 12  1  0
  9 13  2  0
 13 14  1  0
  4 15  1  0
 15 16  1  0
 15 17  2  0
 14  6  2  0
M  ISO  3   1   1   3   3  16   2
M  END
>  <symbol>  (784) 
D_Phe_4iPr

>  <m_abbr>  (784) 
D_Phe_4iPr

>  <m_name>  (784) 
D-4-isopropylphenylalanine

>  <m_type>  (784) 
aa

>  <m_subtype>  (784) 
modified

>  <m_Rgroups>  (784) 
[H],[OH],[H]

>  <m_chem_types>  (784) 
1:backbone_n,2:backbone_c,3:backbone_n_mod

>  <m_activation_policy>  (784) 
canonical-sites-v1

$$$$

     RDKit          2D

 10 10  0  0  0  0  0  0  0  0999 V2000
   -0.6492   -2.4549    0.0000 R   0  0  0  0  0  1  0  0  0  0  0  0
    0.1568   -1.1898    0.0000 N   0  0  0  0  0  0  0  0  0  0  0  0
    1.6540   -1.0983    0.0000 C   0  0  0  0  0  0  0  0  0  0  0  0
    2.0296    0.3539    0.0000 C   0  0  0  0  0  0  0  0  0  0  0  0
    3.4252    0.9037    0.0000 C   0  0  0  0  0  0  0  0  0  0  0  0
    0.7645    1.1599    0.0000 C   0  0  0  0  0  0  0  0  0  0  0  0
   -0.3930    0.2058    0.0000 C   0  0  0  0  0  0  0  0  0  0  0  0
   -1.8452    0.5814    0.0000 C   0  0  0  0  0  0  0  0  0  0  0  0
   -2.2460    2.0268    0.0000 R   0  0  0  0  0  1  0  0  0  0  0  0
   -2.8966   -0.4885    0.0000 O   0  0  0  0  0  0  0  0  0  0  0  0
  1  2  1  0
  2  3  1  0
  3  4  1  0
  4  5  1  1
  4  6  1  0
  6  7  1  0
  7  8  1  1
  8  9  1  0
  8 10  2  0
  7  2  1  0
M  ISO  2   1   1   9   2
M  END
>  <symbol>  (785) 
D_Pro_4Me_c

>  <m_abbr>  (785) 
D_Pro_4Me_c

>  <m_name>  (785) 
D-4-methyl-L-proline (cis)

>  <m_type>  (785) 
aa

>  <m_subtype>  (785) 
modified

>  <m_Rgroups>  (785) 
[H],[OH]

>  <m_chem_types>  (785) 
1:backbone_n,2:backbone_c

>  <m_activation_policy>  (785) 
canonical-sites-v1

$$$$

     RDKit          2D

 10 10  0  0  0  0  0  0  0  0999 V2000
   -0.6492   -2.4549    0.0000 R   0  0  0  0  0  1  0  0  0  0  0  0
    0.1568   -1.1898    0.0000 N   0  0  0  0  0  0  0  0  0  0  0  0
    1.6540   -1.0983    0.0000 C   0  0  0  0  0  0  0  0  0  0  0  0
    2.0296    0.3539    0.0000 C   0  0  0  0  0  0  0  0  0  0  0  0
    3.4252    0.9037    0.0000 C   0  0  0  0  0  0  0  0  0  0  0  0
    0.7645    1.1599    0.0000 C   0  0  0  0  0  0  0  0  0  0  0  0
   -0.3930    0.2058    0.0000 C   0  0  0  0  0  0  0  0  0  0  0  0
   -1.8452    0.5814    0.0000 C   0  0  0  0  0  0  0  0  0  0  0  0
   -2.2460    2.0268    0.0000 R   0  0  0  0  0  1  0  0  0  0  0  0
   -2.8966   -0.4885    0.0000 O   0  0  0  0  0  0  0  0  0  0  0  0
  1  2  1  0
  2  3  1  0
  3  4  1  0
  4  5  1  6
  4  6  1  0
  6  7  1  0
  7  8  1  1
  8  9  1  0
  8 10  2  0
  7  2  1  0
M  ISO  2   1   1   9   2
M  END
>  <symbol>  (786) 
D_Pro_4Me_t

>  <m_abbr>  (786) 
D_Pro_4Me_t

>  <m_name>  (786) 
D-4-methyl-L-proline (trans)

>  <m_type>  (786) 
aa

>  <m_subtype>  (786) 
modified

>  <m_Rgroups>  (786) 
[H],[OH]

>  <m_chem_types>  (786) 
1:backbone_n,2:backbone_c

>  <m_activation_policy>  (786) 
canonical-sites-v1

$$$$

     RDKit          2D

 12 12  0  0  0  0  0  0  0  0999 V2000
   -1.7208   -2.4196    0.0000 R   0  0  0  0  0  1  0  0  0  0  0  0
   -0.7333   -1.2905    0.0000 N   0  0  0  0  0  0  0  0  0  0  0  0
    0.7606   -1.4257    0.0000 C   0  0  0  0  0  0  0  0  0  0  0  0
    1.3508   -0.0467    0.0000 C   0  0  0  0  0  0  0  0  0  0  0  0
    2.8134    0.2864    0.0000 N   0  0  0  0  0  0  0  0  0  0  0  0
    3.8331   -0.8137    0.0000 R   0  0  0  0  0  1  0  0  0  0  0  0
    3.2562    1.7195    0.0000 R   0  0  0  0  0  1  0  0  0  0  0  0
    0.2217    0.9408    0.0000 C   0  0  0  0  0  0  0  0  0  0  0  0
   -1.0664    0.1721    0.0000 C   0  0  0  0  0  0  0  0  0  0  0  0
   -2.4454    0.7623    0.0000 C   0  0  0  0  0  0  0  0  0  0  0  0
   -2.6237    2.2517    0.0000 R   0  0  0  0  0  1  0  0  0  0  0  0
   -3.6460   -0.1368    0.0000 O   0  0  0  0  0  0  0  0  0  0  0  0
  1  2  1  0
  2  3  1  0
  3  4  1  0
  4  5  1  1
  5  6  1  0
  5  7  1  0
  4  8  1  0
  8  9  1  0
  9 10  1  1
 10 11  1  0
 10 12  2  0
  9  2  1  0
M  ISO  4   1   1   6   4   7   5  11   2
M  END
>  <symbol>  (787) 
D_Pro_4NH2_c

>  <m_abbr>  (787) 
D_Pro_4NH2_c

>  <m_name>  (787) 
D-4-amino-L-proline (cis)

>  <m_type>  (787) 
aa

>  <m_subtype>  (787) 
modified

>  <m_Rgroups>  (787) 
[H],[OH],None,[H],[H]

>  <m_chem_types>  (787) 
1:backbone_n,2:backbone_c,4:amine_primary,5:amine_primary

>  <m_activation_policy>  (787) 
canonical-sites-v1

$$$$

     RDKit          2D

 12 12  0  0  0  0  0  0  0  0999 V2000
   -1.7208   -2.4196    0.0000 R   0  0  0  0  0  1  0  0  0  0  0  0
   -0.7333   -1.2905    0.0000 N   0  0  0  0  0  0  0  0  0  0  0  0
    0.7606   -1.4257    0.0000 C   0  0  0  0  0  0  0  0  0  0  0  0
    1.3508   -0.0467    0.0000 C   0  0  0  0  0  0  0  0  0  0  0  0
    2.8134    0.2864    0.0000 N   0  0  0  0  0  0  0  0  0  0  0  0
    3.8331   -0.8137    0.0000 R   0  0  0  0  0  1  0  0  0  0  0  0
    3.2562    1.7195    0.0000 R   0  0  0  0  0  1  0  0  0  0  0  0
    0.2217    0.9408    0.0000 C   0  0  0  0  0  0  0  0  0  0  0  0
   -1.0664    0.1721    0.0000 C   0  0  0  0  0  0  0  0  0  0  0  0
   -2.4454    0.7623    0.0000 C   0  0  0  0  0  0  0  0  0  0  0  0
   -2.6237    2.2517    0.0000 R   0  0  0  0  0  1  0  0  0  0  0  0
   -3.6460   -0.1368    0.0000 O   0  0  0  0  0  0  0  0  0  0  0  0
  1  2  1  0
  2  3  1  0
  3  4  1  0
  4  5  1  6
  5  6  1  0
  5  7  1  0
  4  8  1  0
  8  9  1  0
  9 10  1  1
 10 11  1  0
 10 12  2  0
  9  2  1  0
M  ISO  4   1   1   6   4   7   5  11   2
M  END
>  <symbol>  (788) 
D_Pro_4NH2_t

>  <m_abbr>  (788) 
D_Pro_4NH2_t

>  <m_name>  (788) 
D-4-amino-L-proline (trans)

>  <m_type>  (788) 
aa

>  <m_subtype>  (788) 
modified

>  <m_Rgroups>  (788) 
[H],[OH],None,[H],[H]

>  <m_chem_types>  (788) 
1:backbone_n,2:backbone_c,4:amine_primary,5:amine_primary

>  <m_activation_policy>  (788) 
canonical-sites-v1

$$$$

     RDKit          2D

 13 13  0  0  0  0  0  0  0  0999 V2000
   -2.0806    2.2134    0.0000 R   0  0  0  0  0  1  0  0  0  0  0  0
   -0.9264    1.2554    0.0000 N   0  0  0  0  0  0  0  0  0  0  0  0
    0.4804    1.7760    0.0000 R   0  0  0  0  0  1  0  0  0  0  0  0
   -1.1789   -0.2232    0.0000 C   0  0  0  0  0  0  0  0  0  0  0  0
   -0.0246   -1.1812    0.0000 C   0  0  0  0  0  0  0  0  0  0  0  0
    1.3821   -0.6606    0.0000 N   0  0  0  0  0  0  0  0  0  0  0  0
    2.6302   -1.4926    0.0000 C   0  0  0  0  0  0  0  0  0  0  0  0
    3.8072   -0.5628    0.0000 C   0  0  0  0  0  0  0  0  0  0  0  0
    3.2866    0.8440    0.0000 C   0  0  0  0  0  0  0  0  0  0  0  0
    1.7878    0.7835    0.0000 C   0  0  0  0  0  0  0  0  0  0  0  0
   -2.5856   -0.7438    0.0000 C   0  0  0  0  0  0  0  0  0  0  0  0
   -3.7399    0.2142    0.0000 R   0  0  0  0  0  1  0  0  0  0  0  0
   -2.8382   -2.2224    0.0000 O   0  0  0  0  0  0  0  0  0  0  0  0
  1  2  1  0
  2  3  1  0
  2  4  1  0
  4  5  1  6
  5  6  1  0
  6  7  1  0
  7  8  2  0
  8  9  1  0
  9 10  2  0
  4 11  1  0
 11 12  1  0
 11 13  2  0
 10  6  1  0
M  ISO  3   1   1   3   3  12   2
M  END
>  <symbol>  (789) 
D_Pyr1Ala

>  <m_abbr>  (789) 
D_Pyr1Ala

>  <m_name>  (789) 
D-1-pyrazol-1-yl-alanine

>  <m_type>  (789) 
aa

>  <m_subtype>  (789) 
modified

>  <m_Rgroups>  (789) 
[H],[OH],[H]

>  <m_chem_types>  (789) 
1:backbone_n,2:backbone_c,3:backbone_n_mod

>  <m_activation_policy>  (789) 
canonical-sites-v1

$$$$

     RDKit          2D

 13 12  0  0  0  0  0  0  0  0999 V2000
   -4.0960   -0.1954    0.0000 R   0  0  0  0  0  1  0  0  0  0  0  0
   -2.7929   -0.9383    0.0000 N   0  0  0  0  0  0  0  0  0  0  0  0
   -2.7847   -2.4383    0.0000 R   0  0  0  0  0  1  0  0  0  0  0  0
   -1.4979   -0.1812    0.0000 C   0  0  0  0  0  0  0  0  0  0  0  0
   -0.1948   -0.9242    0.0000 C   0  0  0  0  0  0  0  0  0  0  0  0
    1.1001   -0.1671    0.0000 O   0  0  0  0  0  0  0  0  0  0  0  0
    2.4032   -0.9100    0.0000 C   0  0  0  0  0  0  0  0  0  0  0  0
    3.6982   -0.1529    0.0000 C   0  0  0  0  0  0  0  0  0  0  0  0
    5.0013   -0.8959    0.0000 R   0  0  0  0  0  1  0  0  0  0  0  0
    3.6900    1.3470    0.0000 C   0  0  0  0  0  0  0  0  0  0  0  0
   -1.5061    1.3187    0.0000 C   0  0  0  0  0  0  0  0  0  0  0  0
   -0.2112    2.0758    0.0000 R   0  0  0  0  0  1  0  0  0  0  0  0
   -2.8092    2.0617    0.0000 O   0  0  0  0  0  0  0  0  0  0  0  0
  1  2  1  0
  2  3  1  0
  2  4  1  0
  4  5  1  1
  5  6  1  0
  6  7  1  0
  7  8  1  0
  8  9  1  0
  8 10  2  0
  4 11  1  0
 11 12  1  0
 11 13  2  0
M  ISO  4   1   1   3   3   9   4  12   2
M  END
>  <symbol>  (790) 
D_Ser_All

>  <m_abbr>  (790) 
D_Ser_All

>  <m_name>  (790) 
D-O-allylserine

>  <m_type>  (790) 
aa

>  <m_subtype>  (790) 
modified

>  <m_Rgroups>  (790) 
[H],[OH],[H],[H]

>  <m_chem_types>  (790) 
1:backbone_n,2:backbone_c,3:backbone_n_mod,4:terminal_alkene

>  <m_activation_policy>  (790) 
canonical-sites-v1

$$$$

     RDKit          2D

 14 13  0  0  0  0  0  0  0  0999 V2000
   -2.7837   -2.2500    0.0000 R   0  0  0  0  0  1  0  0  0  0  0  0
   -1.4846   -1.5000    0.0000 N   0  0  0  0  0  0  0  0  0  0  0  0
   -0.1856   -2.2500    0.0000 R   0  0  0  0  0  1  0  0  0  0  0  0
   -1.4846   -0.0000    0.0000 C   0  0  0  0  0  0  0  0  0  0  0  0
   -2.7837    0.7500    0.0000 C   0  0  0  0  0  0  0  0  0  0  0  0
   -2.7837    2.2500    0.0000 R   0  0  0  0  0  1  0  0  0  0  0  0
   -4.0827   -0.0000    0.0000 O   0  0  0  0  0  0  0  0  0  0  0  0
   -0.1856    0.7500    0.0000 C   0  0  0  0  0  0  0  0  0  0  0  0
   -0.1856    2.2500    0.0000 C   0  0  0  0  0  0  0  0  0  0  0  0
    1.1135    0.0000    0.0000 O   0  0  0  0  0  0  0  0  0  0  0  0
    2.4125    0.7500    0.0000 C   0  0  0  0  0  0  0  0  0  0  0  0
    3.7115    0.0000    0.0000 C   0  0  0  0  0  0  0  0  0  0  0  0
    5.0106    0.7500    0.0000 R   0  0  0  0  0  1  0  0  0  0  0  0
    3.7115   -1.5000    0.0000 C   0  0  0  0  0  0  0  0  0  0  0  0
  1  2  1  0
  2  3  1  0
  4  2  1  1
  4  5  1  0
  5  6  1  0
  5  7  2  0
  4  8  1  0
  8  9  1  1
  8 10  1  0
 10 11  1  0
 11 12  1  0
 12 13  1  0
 12 14  2  0
M  ISO  4   1   1   3   3   6   2  13   4
M  END
>  <symbol>  (791) 
D_Thr_All

>  <m_abbr>  (791) 
D_Thr_All

>  <m_name>  (791) 
D-O-allylthreonine

>  <m_type>  (791) 
aa

>  <m_subtype>  (791) 
modified

>  <m_Rgroups>  (791) 
[H],[OH],[H],[H]

>  <m_chem_types>  (791) 
1:backbone_n,2:backbone_c,3:backbone_n_mod,4:terminal_alkene

>  <m_activation_policy>  (791) 
canonical-sites-v1

$$$$

     RDKit          2D

 13 13  0  0  0  0  0  0  0  0999 V2000
   -2.0806    2.2134    0.0000 R   0  0  0  0  0  1  0  0  0  0  0  0
   -0.9264    1.2554    0.0000 N   0  0  0  0  0  0  0  0  0  0  0  0
    0.4804    1.7760    0.0000 R   0  0  0  0  0  1  0  0  0  0  0  0
   -1.1789   -0.2232    0.0000 C   0  0  0  0  0  0  0  0  0  0  0  0
   -0.0246   -1.1812    0.0000 C   0  0  0  0  0  0  0  0  0  0  0  0
    1.3821   -0.6606    0.0000 N   0  0  0  0  0  0  0  0  0  0  0  0
    2.6302   -1.4926    0.0000 C   0  0  0  0  0  0  0  0  0  0  0  0
    3.8072   -0.5628    0.0000 C   0  0  0  0  0  0  0  0  0  0  0  0
    3.2866    0.8440    0.0000 N   0  0  0  0  0  0  0  0  0  0  0  0
    1.7878    0.7835    0.0000 N   0  0  0  0  0  0  0  0  0  0  0  0
   -2.5856   -0.7438    0.0000 C   0  0  0  0  0  0  0  0  0  0  0  0
   -3.7399    0.2142    0.0000 R   0  0  0  0  0  1  0  0  0  0  0  0
   -2.8382   -2.2224    0.0000 O   0  0  0  0  0  0  0  0  0  0  0  0
  1  2  1  0
  2  3  1  0
  2  4  1  0
  4  5  1  6
  5  6  1  0
  6  7  1  0
  7  8  2  0
  8  9  1  0
  9 10  2  0
  4 11  1  0
 11 12  1  0
 11 13  2  0
 10  6  1  0
M  ISO  3   1   1   3   3  12   2
M  END
>  <symbol>  (792) 
D_TriazAla

>  <m_abbr>  (792) 
D_TriazAla

>  <m_name>  (792) 
D-1,2,4-triazol-1-yl-alanine

>  <m_type>  (792) 
aa

>  <m_subtype>  (792) 
modified

>  <m_Rgroups>  (792) 
[H],[OH],[H]

>  <m_chem_types>  (792) 
1:backbone_n,2:backbone_c,3:backbone_n_mod

>  <m_activation_policy>  (792) 
canonical-sites-v1

$$$$

     RDKit          2D

 19 19  0  0  0  0  0  0  0  0999 V2000
   -4.1838    2.2752    0.0000 R   0  0  0  0  0  1  0  0  0  0  0  0
   -3.0808    1.2587    0.0000 N   0  0  0  0  0  0  0  0  0  0  0  0
   -1.6489    1.7056    0.0000 R   0  0  0  0  0  1  0  0  0  0  0  0
   -3.4096   -0.2049    0.0000 C   0  0  0  0  0  0  0  0  0  0  0  0
   -2.3066   -1.2214    0.0000 C   0  0  0  0  0  0  0  0  0  0  0  0
   -0.8748   -0.7744    0.0000 C   0  0  0  0  0  0  0  0  0  0  0  0
   -0.5459    0.6891    0.0000 C   0  0  0  0  0  0  0  0  0  0  0  0
    0.8859    1.1360    0.0000 C   0  0  0  0  0  0  0  0  0  0  0  0
    1.9890    0.1195    0.0000 C   0  0  0  0  0  0  0  0  0  0  0  0
    3.4208    0.5665    0.0000 O   0  0  0  0  0  0  0  0  0  0  0  0
    4.5238   -0.4501    0.0000 C   0  0  0  0  0  0  0  0  0  0  0  0
    5.9557   -0.0031    0.0000 C   0  0  0  0  0  0  0  0  0  0  0  0
    7.0587   -1.0197    0.0000 R   0  0  0  0  0  1  0  0  0  0  0  0
    6.2845    1.4604    0.0000 C   0  0  0  0  0  0  0  0  0  0  0  0
    1.6601   -1.3440    0.0000 C   0  0  0  0  0  0  0  0  0  0  0  0
    0.2282   -1.7910    0.0000 C   0  0  0  0  0  0  0  0  0  0  0  0
   -4.8415   -0.6518    0.0000 C   0  0  0  0  0  0  0  0  0  0  0  0
   -5.9445    0.3647    0.0000 R   0  0  0  0  0  1  0  0  0  0  0  0
   -5.1703   -2.1153    0.0000 O   0  0  0  0  0  0  0  0  0  0  0  0
  1  2  1  0
  2  3  1  0
  2  4  1  0
  4  5  1  6
  5  6  1  0
  6  7  1  0
  7  8  2  0
  8  9  1  0
  9 10  1  0
 10 11  1  0
 11 12  1  0
 12 13  1  0
 12 14  2  0
  9 15  2  0
 15 16  1  0
  4 17  1  0
 17 18  1  0
 17 19  2  0
 16  6  2  0
M  ISO  4   1   1   3   3  13   4  18   2
M  END
>  <symbol>  (793) 
D_Tyr_All

>  <m_abbr>  (793) 
D_Tyr_All

>  <m_name>  (793) 
D-O-allyltyrosine

>  <m_type>  (793) 
aa

>  <m_subtype>  (793) 
modified

>  <m_Rgroups>  (793) 
[H],[OH],[H],[H]

>  <m_chem_types>  (793) 
1:backbone_n,2:backbone_c,3:backbone_n_mod,4:terminal_alkene

>  <m_activation_policy>  (793) 
canonical-sites-v1

$$$$

     RDKit          2D

 18 17  0  0  0  0  0  0  0  0999 V2000
   -5.8137   -0.9999    0.0000 R   0  0  0  0  0  1  0  0  0  0  0  0
   -4.3494   -1.3253    0.0000 N   0  0  0  0  0  0  0  0  0  0  0  0
   -3.8990   -2.7561    0.0000 R   0  0  0  0  0  1  0  0  0  0  0  0
   -3.3355   -0.2199    0.0000 C   0  0  0  0  0  0  0  0  0  0  0  0
   -1.8712   -0.5453    0.0000 C   0  0  0  0  0  0  0  0  0  0  0  0
   -0.8572    0.5601    0.0000 C   0  0  0  0  0  0  0  0  0  0  0  0
    0.6070    0.2348    0.0000 C   0  0  0  0  0  0  0  0  0  0  0  0
    1.6210    1.3402    0.0000 C   0  0  0  0  0  0  0  0  0  0  0  0
    3.0853    1.0148    0.0000 N   0  0  0  0  0  0  0  0  0  0  0  0
    4.0992    2.1202    0.0000 R   0  0  0  0  0  1  0  0  0  0  0  0
    3.5356   -0.4160    0.0000 C   0  0  0  0  0  0  0  0  0  0  0  0
    2.5217   -1.5214    0.0000 O   0  0  0  0  0  0  0  0  0  0  0  0
    4.9999   -0.7414    0.0000 N   0  0  0  0  0  0  0  0  0  0  0  0
    5.4502   -2.1722    0.0000 R   0  0  0  0  0  1  0  0  0  0  0  0
    6.0138    0.3640    0.0000 R   0  0  0  0  0  1  0  0  0  0  0  0
   -3.7858    1.2109    0.0000 C   0  0  0  0  0  0  0  0  0  0  0  0
   -2.7719    2.3163    0.0000 R   0  0  0  0  0  1  0  0  0  0  0  0
   -5.2501    1.5363    0.0000 O   0  0  0  0  0  0  0  0  0  0  0  0
  1  2  1  0
  2  3  1  0
  2  4  1  0
  4  5  1  1
  5  6  1  0
  6  7  1  0
  7  8  1  0
  8  9  1  0
  9 10  1  0
  9 11  1  0
 11 12  2  0
 11 13  1  0
 13 14  1  0
 13 15  1  0
  4 16  1  0
 16 17  1  0
 16 18  2  0
M  ISO  6   1   1   3   3  10   6  14   4  15   5  17   2
M  END
>  <symbol>  (794) 
D_hCit

>  <m_abbr>  (794) 
D_hCit

>  <m_name>  (794) 
D-homocitrulline

>  <m_type>  (794) 
aa

>  <m_subtype>  (794) 
modified

>  <m_Rgroups>  (794) 
[H],[OH],[H],[H],[H],[H]

>  <m_chem_types>  (794) 
1:backbone_n,2:backbone_c,3:backbone_n_mod,4:urea_nh,5:urea_nh,6:urea_nh

>  <m_activation_policy>  (794) 
canonical-sites-v1

$$$$

     RDKit          2D

 11 10  0  0  0  0  0  0  0  0999 V2000
   -2.0892    1.3257    0.0000 R   0  0  0  0  0  1  0  0  0  0  0  0
   -1.7537   -0.1363    0.0000 N   0  0  0  0  0  0  0  0  0  0  0  0
   -2.8521   -1.1579    0.0000 R   0  0  0  0  0  1  0  0  0  0  0  0
   -0.3198   -0.5768    0.0000 C   0  0  0  0  0  0  0  0  0  0  0  0
   -0.7603   -2.0107    0.0000 C   0  0  0  0  0  0  0  0  0  0  0  0
    1.1140   -1.0172    0.0000 C   0  0  0  0  0  0  0  0  0  0  0  0
    2.2124    0.0043    0.0000 S   0  0  0  0  0  0  0  0  0  0  0  0
    3.6463   -0.4362    0.0000 R   0  0  0  0  0  1  0  0  0  0  0  0
    0.1206    0.8571    0.0000 C   0  0  0  0  0  0  0  0  0  0  0  0
    1.5826    1.1926    0.0000 R   0  0  0  0  0  1  0  0  0  0  0  0
   -0.9009    1.9555    0.0000 O   0  0  0  0  0  0  0  0  0  0  0  0
  1  2  1  0
  2  3  1  0
  2  4  1  0
  4  5  1  6
  4  6  1  0
  6  7  1  0
  7  8  1  0
  4  9  1  0
  9 10  1  0
  9 11  2  0
M  ISO  4   1   1   3   3   8   4  10   2
M  END
>  <symbol>  (795) 
D_aMeCys

>  <m_abbr>  (795) 
D_aMeCys

>  <m_name>  (795) 
D-alpha-methylcysteine

>  <m_type>  (795) 
aa

>  <m_subtype>  (795) 
modified

>  <m_Rgroups>  (795) 
[H],[OH],[H],[H]

>  <m_chem_types>  (795) 
1:backbone_n,2:backbone_c,3:backbone_n_mod,4:thiol

>  <m_activation_policy>  (795) 
canonical-sites-v1

$$$$

     RDKit          2D

 15 15  0  0  0  0  0  0  0  0999 V2000
   -1.0480   -2.7236    0.0000 R   0  0  0  0  0  1  0  0  0  0  0  0
   -0.5312   -1.3155    0.0000 N   0  0  0  0  0  0  0  0  0  0  0  0
    0.6806   -1.4035    0.0000 R   0  0  0  0  0  1  0  0  0  0  0  0
   -1.4923   -0.1638    0.0000 C   0  0  0  0  0  0  0  0  0  0  0  0
   -2.6439   -1.1249    0.0000 C   0  0  0  0  0  0  0  0  0  0  0  0
   -0.3406    0.7973    0.0000 C   0  0  0  0  0  0  0  0  0  0  0  0
    1.0675    0.2805    0.0000 C   0  0  0  0  0  0  0  0  0  0  0  0
    1.4771   -1.1625    0.0000 C   0  0  0  0  0  0  0  0  0  0  0  0
    2.9761   -1.2189    0.0000 N   0  0  0  0  0  0  0  0  0  0  0  0
    3.4929    0.1892    0.0000 C   0  0  0  0  0  0  0  0  0  0  0  0
    2.3133    1.1159    0.0000 N   0  0  0  0  0  0  0  0  0  0  0  0
    2.3697    2.6148    0.0000 R   0  0  0  0  0  1  0  0  0  0  0  0
   -2.4534    0.9878    0.0000 C   0  0  0  0  0  0  0  0  0  0  0  0
   -1.9366    2.3960    0.0000 R   0  0  0  0  0  1  0  0  0  0  0  0
   -3.9313    0.7313    0.0000 O   0  0  0  0  0  0  0  0  0  0  0  0
  1  2  1  0
  2  3  1  0
  2  4  1  0
  4  5  1  6
  4  6  1  0
  6  7  1  0
  7  8  2  0
  8  9  1  0
  9 10  2  0
 10 11  1  0
 11 12  1  0
  4 13  1  0
 13 14  1  0
 13 15  2  0
 11  7  1  0
M  ISO  4   1   1   3   3  12   4  14   2
M  END
>  <symbol>  (796) 
D_aMeHis

>  <m_abbr>  (796) 
D_aMeHis

>  <m_name>  (796) 
D-alpha-methylhistidine

>  <m_type>  (796) 
aa

>  <m_subtype>  (796) 
modified

>  <m_Rgroups>  (796) 
[H],[OH],[H],[H]

>  <m_chem_types>  (796) 
1:backbone_n,2:backbone_c,3:backbone_n_mod,4:aromatic_nh

>  <m_activation_policy>  (796) 
canonical-sites-v1

$$$$

     RDKit          2D

 15 14  0  0  0  0  0  0  0  0999 V2000
   -1.9831    2.5037    0.0000 R   0  0  0  0  0  1  0  0  0  0  0  0
   -2.8283    1.2645    0.0000 N   0  0  0  0  0  0  0  0  0  0  0  0
   -4.3241    1.3769    0.0000 R   0  0  0  0  0  1  0  0  0  0  0  0
   -2.1777   -0.0871    0.0000 C   0  0  0  0  0  0  0  0  0  0  0  0
   -3.5293   -0.7377    0.0000 C   0  0  0  0  0  0  0  0  0  0  0  0
   -0.8261    0.5635    0.0000 C   0  0  0  0  0  0  0  0  0  0  0  0
    0.4131   -0.2817    0.0000 C   0  0  0  0  0  0  0  0  0  0  0  0
    1.7646    0.3688    0.0000 C   0  0  0  0  0  0  0  0  0  0  0  0
    3.0038   -0.4764    0.0000 C   0  0  0  0  0  0  0  0  0  0  0  0
    4.3554    0.1742    0.0000 N   0  0  0  0  0  0  0  0  0  0  0  0
    5.5946   -0.6710    0.0000 R   0  0  0  0  0  1  0  0  0  0  0  0
    4.4678    1.6700    0.0000 R   0  0  0  0  0  1  0  0  0  0  0  0
   -1.5271   -1.4387    0.0000 C   0  0  0  0  0  0  0  0  0  0  0  0
   -0.0314   -1.5510    0.0000 R   0  0  0  0  0  1  0  0  0  0  0  0
   -2.3724   -2.6779    0.0000 O   0  0  0  0  0  0  0  0  0  0  0  0
  1  2  1  0
  2  3  1  0
  2  4  1  0
  4  5  1  1
  4  6  1  0
  6  7  1  0
  7  8  1  0
  8  9  1  0
  9 10  1  0
 10 11  1  0
 10 12  1  0
  4 13  1  0
 13 14  1  0
 13 15  2  0
M  ISO  5   1   1   3   3  11   4  12   5  14   2
M  END
>  <symbol>  (797) 
D_aMeLys

>  <m_abbr>  (797) 
D_aMeLys

>  <m_name>  (797) 
D-alpha-methyllysine

>  <m_type>  (797) 
aa

>  <m_subtype>  (797) 
modified

>  <m_Rgroups>  (797) 
[H],[OH],[H],[H],[H]

>  <m_chem_types>  (797) 
1:backbone_n,2:backbone_c,3:backbone_n_mod,4:amine_primary,5:amine_primary

>  <m_activation_policy>  (797) 
canonical-sites-v1

$$$$

     RDKit          2D

 12 11  0  0  0  0  0  0  0  0999 V2000
   -1.2669    2.4028    0.0000 R   0  0  0  0  0  1  0  0  0  0  0  0
   -1.8583    1.0242    0.0000 N   0  0  0  0  0  0  0  0  0  0  0  0
   -3.3478    0.8470    0.0000 R   0  0  0  0  0  1  0  0  0  0  0  0
   -0.9601   -0.1771    0.0000 C   0  0  0  0  0  0  0  0  0  0  0  0
   -2.1614   -1.0753    0.0000 C   0  0  0  0  0  0  0  0  0  0  0  0
    0.2413    0.7210    0.0000 C   0  0  0  0  0  0  0  0  0  0  0  0
    1.6198    0.1297    0.0000 C   0  0  0  0  0  0  0  0  0  0  0  0
    2.8212    1.0279    0.0000 S   0  0  0  0  0  0  0  0  0  0  0  0
    4.1997    0.4366    0.0000 C   0  0  0  0  0  0  0  0  0  0  0  0
   -0.0619   -1.3785    0.0000 C   0  0  0  0  0  0  0  0  0  0  0  0
    1.4276   -1.2013    0.0000 R   0  0  0  0  0  1  0  0  0  0  0  0
   -0.6532   -2.7570    0.0000 O   0  0  0  0  0  0  0  0  0  0  0  0
  1  2  1  0
  2  3  1  0
  2  4  1  0
  4  5  1  1
  4  6  1  0
  6  7  1  0
  7  8  1  0
  8  9  1  0
  4 10  1  0
 10 11  1  0
 10 12  2  0
M  ISO  3   1   1   3   3  11   2
M  END
>  <symbol>  (798) 
D_aMeMet

>  <m_abbr>  (798) 
D_aMeMet

>  <m_name>  (798) 
D-alpha-methylmethionine

>  <m_type>  (798) 
aa

>  <m_subtype>  (798) 
modified

>  <m_Rgroups>  (798) 
[H],[OH],[H]

>  <m_chem_types>  (798) 
1:backbone_n,2:backbone_c,3:backbone_n_mod

>  <m_activation_policy>  (798) 
canonical-sites-v1

$$$$

     RDKit          2D

 12 11  0  0  0  0  0  0  0  0999 V2000
   -1.2669    2.4028    0.0000 R   0  0  0  0  0  1  0  0  0  0  0  0
   -1.8583    1.0242    0.0000 N   0  0  0  0  0  0  0  0  0  0  0  0
   -3.3478    0.8470    0.0000 R   0  0  0  0  0  1  0  0  0  0  0  0
   -0.9601   -0.1771    0.0000 C   0  0  0  0  0  0  0  0  0  0  0  0
   -2.1614   -1.0753    0.0000 C   0  0  0  0  0  0  0  0  0  0  0  0
    0.2413    0.7210    0.0000 C   0  0  0  0  0  0  0  0  0  0  0  0
    1.6198    0.1297    0.0000 C   0  0  0  0  0  0  0  0  0  0  0  0
    2.8212    1.0279    0.0000 C   0  0  0  0  0  0  0  0  0  0  0  0
    4.1997    0.4366    0.0000 C   0  0  0  0  0  0  0  0  0  0  0  0
   -0.0619   -1.3785    0.0000 C   0  0  0  0  0  0  0  0  0  0  0  0
    1.4276   -1.2013    0.0000 R   0  0  0  0  0  1  0  0  0  0  0  0
   -0.6532   -2.7570    0.0000 O   0  0  0  0  0  0  0  0  0  0  0  0
  1  2  1  0
  2  3  1  0
  2  4  1  0
  4  5  1  1
  4  6  1  0
  6  7  1  0
  7  8  1  0
  8  9  1  0
  4 10  1  0
 10 11  1  0
 10 12  2  0
M  ISO  3   1   1   3   3  11   2
M  END
>  <symbol>  (799) 
D_aMeNle

>  <m_abbr>  (799) 
D_aMeNle

>  <m_name>  (799) 
D-alpha-methylnorleucine

>  <m_type>  (799) 
aa

>  <m_subtype>  (799) 
modified

>  <m_Rgroups>  (799) 
[H],[OH],[H]

>  <m_chem_types>  (799) 
1:backbone_n,2:backbone_c,3:backbone_n_mod

>  <m_activation_policy>  (799) 
canonical-sites-v1

$$$$

     RDKit          2D

 11 10  0  0  0  0  0  0  0  0999 V2000
   -1.2617    2.2709    0.0000 R   0  0  0  0  0  1  0  0  0  0  0  0
   -1.6267    0.8160    0.0000 N   0  0  0  0  0  0  0  0  0  0  0  0
   -3.0691    0.4046    0.0000 R   0  0  0  0  0  1  0  0  0  0  0  0
   -0.5491   -0.2275    0.0000 C   0  0  0  0  0  0  0  0  0  0  0  0
   -1.5926   -1.3050    0.0000 C   0  0  0  0  0  0  0  0  0  0  0  0
    0.4944    0.8500    0.0000 C   0  0  0  0  0  0  0  0  0  0  0  0
    1.9493    0.4851    0.0000 C   0  0  0  0  0  0  0  0  0  0  0  0
    2.9928    1.5626    0.0000 C   0  0  0  0  0  0  0  0  0  0  0  0
    0.5284   -1.2710    0.0000 C   0  0  0  0  0  0  0  0  0  0  0  0
    1.9709   -0.8596    0.0000 R   0  0  0  0  0  1  0  0  0  0  0  0
    0.1634   -2.7260    0.0000 O   0  0  0  0  0  0  0  0  0  0  0  0
  1  2  1  0
  2  3  1  0
  2  4  1  0
  4  5  1  1
  4  6  1  0
  6  7  1  0
  7  8  1  0
  4  9  1  0
  9 10  1  0
  9 11  2  0
M  ISO  3   1   1   3   3  10   2
M  END
>  <symbol>  (800) 
D_aMeNva

>  <m_abbr>  (800) 
D_aMeNva

>  <m_name>  (800) 
D-alpha-methylnorvaline

>  <m_type>  (800) 
aa

>  <m_subtype>  (800) 
modified

>  <m_Rgroups>  (800) 
[H],[OH],[H]

>  <m_chem_types>  (800) 
1:backbone_n,2:backbone_c,3:backbone_n_mod

>  <m_activation_policy>  (800) 
canonical-sites-v1

$$$$

     RDKit          2D

 10 10  0  0  0  0  0  0  0  0999 V2000
    1.8674   -1.9411    0.0000 R   0  0  0  0  0  1  0  0  0  0  0  0
    1.3645   -0.5279    0.0000 N   0  0  0  0  0  0  0  0  0  0  0  0
    2.2122    0.7096    0.0000 C   0  0  0  0  0  0  0  0  0  0  0  0
    1.2972    1.8982    0.0000 C   0  0  0  0  0  0  0  0  0  0  0  0
   -0.1160    1.3953    0.0000 C   0  0  0  0  0  0  0  0  0  0  0  0
   -0.0744   -0.1041    0.0000 C   0  0  0  0  0  0  0  0  0  0  0  0
   -0.3455   -1.5794    0.0000 C   0  0  0  0  0  0  0  0  0  0  0  0
   -1.5700    0.0113    0.0000 C   0  0  0  0  0  0  0  0  0  0  0  0
   -2.2178    1.3642    0.0000 R   0  0  0  0  0  1  0  0  0  0  0  0
   -2.4177   -1.2262    0.0000 O   0  0  0  0  0  0  0  0  0  0  0  0
  1  2  1  0
  2  3  1  0
  3  4  1  0
  4  5  1  0
  5  6  1  0
  6  7  1  6
  6  8  1  0
  8  9  1  0
  8 10  2  0
  6  2  1  0
M  ISO  2   1   1   9   2
M  END
>  <symbol>  (801) 
D_aMePro

>  <m_abbr>  (801) 
D_aMePro

>  <m_name>  (801) 
D-alpha-methylproline

>  <m_type>  (801) 
aa

>  <m_subtype>  (801) 
modified

>  <m_Rgroups>  (801) 
[H],[OH]

>  <m_chem_types>  (801) 
1:backbone_n,2:backbone_c

>  <m_activation_policy>  (801) 
canonical-sites-v1

$$$$

     RDKit          2D

 12 11  0  0  0  0  0  0  0  0999 V2000
   -1.9405   -1.0935    0.0000 R   0  0  0  0  0  1  0  0  0  0  0  0
   -0.4893   -1.4732    0.0000 N   0  0  0  0  0  0  0  0  0  0  0  0
   -0.0926   -2.9197    0.0000 R   0  0  0  0  0  1  0  0  0  0  0  0
    0.5651   -0.4063    0.0000 C   0  0  0  0  0  0  0  0  0  0  0  0
    1.6320   -1.4607    0.0000 C   0  0  0  0  0  0  0  0  0  0  0  0
    1.6195    0.6606    0.0000 C   0  0  0  0  0  0  0  0  0  0  0  0
    1.2227    2.1072    0.0000 R   0  0  0  0  0  1  0  0  0  0  0  0
    3.0706    0.2809    0.0000 O   0  0  0  0  0  0  0  0  0  0  0  0
   -0.5018    0.6481    0.0000 C   0  0  0  0  0  0  0  0  0  0  0  0
   -0.1221    2.0993    0.0000 C   0  0  0  0  0  0  0  0  0  0  0  0
   -1.9484    0.2514    0.0000 O   0  0  0  0  0  0  0  0  0  0  0  0
   -3.0153    1.3058    0.0000 R   0  0  0  0  0  1  0  0  0  0  0  0
  1  2  1  0
  2  3  1  0
  2  4  1  0
  4  5  1  1
  4  6  1  0
  6  7  1  0
  6  8  2  0
  4  9  1  0
  9 10  1  6
  9 11  1  0
 11 12  1  0
M  ISO  4   1   1   3   3   7   2  12   4
M  END
>  <symbol>  (802) 
D_aMeThr

>  <m_abbr>  (802) 
D_aMeThr

>  <m_name>  (802) 
D-alpha-methylthreonine

>  <m_type>  (802) 
aa

>  <m_subtype>  (802) 
modified

>  <m_Rgroups>  (802) 
[H],[OH],[H],[H]

>  <m_chem_types>  (802) 
1:backbone_n,2:backbone_c,3:backbone_n_mod,4:hydroxyl

>  <m_activation_policy>  (802) 
canonical-sites-v1

$$$$

     RDKit          2D

 19 19  0  0  0  0  0  0  0  0999 V2000
   -5.0465   -0.9717    0.0000 R   0  0  0  0  0  1  0  0  0  0  0  0
   -3.5580   -1.1570    0.0000 N   0  0  0  0  0  0  0  0  0  0  0  0
   -2.9743   -2.5388    0.0000 R   0  0  0  0  0  1  0  0  0  0  0  0
   -2.6532    0.0393    0.0000 C   0  0  0  0  0  0  0  0  0  0  0  0
   -3.8496    0.9441    0.0000 C   0  0  0  0  0  0  0  0  0  0  0  0
   -1.4568   -0.8654    0.0000 C   0  0  0  0  0  0  0  0  0  0  0  0
   -0.0751   -0.2817    0.0000 C   0  0  0  0  0  0  0  0  0  0  0  0
    0.1103    1.2068    0.0000 C   0  0  0  0  0  0  0  0  0  0  0  0
    1.4921    1.7905    0.0000 C   0  0  0  0  0  0  0  0  0  0  0  0
    2.6885    0.8857    0.0000 C   0  0  0  0  0  0  0  0  0  0  0  0
    4.0702    1.4694    0.0000 O   0  0  0  0  0  0  0  0  0  0  0  0
    5.2666    0.5646    0.0000 R   0  0  0  0  0  1  0  0  0  0  0  0
    2.5031   -0.6028    0.0000 C   0  0  0  0  0  0  0  0  0  0  0  0
    3.6995   -1.5076    0.0000 O   0  0  0  0  0  0  0  0  0  0  0  0
    3.5141   -2.9961    0.0000 R   0  0  0  0  0  1  0  0  0  0  0  0
    1.1213   -1.1865    0.0000 C   0  0  0  0  0  0  0  0  0  0  0  0
   -1.7484    1.2357    0.0000 C   0  0  0  0  0  0  0  0  0  0  0  0
   -0.7714    1.3540    0.0000 R   0  0  0  0  0  1  0  0  0  0  0  0
   -2.3322    2.6175    0.0000 O   0  0  0  0  0  0  0  0  0  0  0  0
  1  2  1  0
  2  3  1  0
  2  4  1  0
  4  5  1  6
  4  6  1  0
  6  7  1  0
  7  8  1  0
  8  9  2  0
  9 10  1  0
 10 11  1  0
 11 12  1  0
 10 13  2  0
 13 14  1  0
 14 15  1  0
 13 16  1  0
  4 17  1  0
 17 18  1  0
 17 19  2  0
 16  7  2  0
M  ISO  5   1   1   3   3  12   4  15   5  18   2
M  END
>  <symbol>  (803) 
D_aMeTyr_3OH

>  <m_abbr>  (803) 
D_aMeTyr_3OH

>  <m_name>  (803) 
D-alpha-methyl-3-hydroxytyrosine

>  <m_type>  (803) 
aa

>  <m_subtype>  (803) 
modified

>  <m_Rgroups>  (803) 
[H],[OH],[H],[H],[H]

>  <m_chem_types>  (803) 
1:backbone_n,2:backbone_c,3:backbone_n_mod,4:aryl_phenol_o,5:aryl_phenol_o

>  <m_activation_policy>  (803) 
canonical-sites-v1

$$$$

     RDKit          2D

 16 16  0  0  0  0  0  0  0  0999 V2000
   -4.4249    0.3264    0.0000 R   0  0  0  0  0  1  0  0  0  0  0  0
   -3.0050    0.8101    0.0000 N   0  0  0  0  0  0  0  0  0  0  0  0
   -2.7140    2.2816    0.0000 R   0  0  0  0  0  1  0  0  0  0  0  0
   -1.8762   -0.1777    0.0000 C   0  0  0  0  0  0  0  0  0  0  0  0
   -2.8640   -1.3065    0.0000 C   0  0  0  0  0  0  0  0  0  0  0  0
   -0.8884    0.9511    0.0000 C   0  0  0  0  0  0  0  0  0  0  0  0
    0.5831    0.6600    0.0000 C   0  0  0  0  0  0  0  0  0  0  0  0
    1.0668   -0.7598    0.0000 C   0  0  0  0  0  0  0  0  0  0  0  0
    2.5383   -1.0509    0.0000 C   0  0  0  0  0  0  0  0  0  0  0  0
    3.5261    0.0779    0.0000 C   0  0  0  0  0  0  0  0  0  0  0  0
    4.9976   -0.2131    0.0000 Cl  0  0  0  0  0  0  0  0  0  0  0  0
    3.0424    1.4978    0.0000 C   0  0  0  0  0  0  0  0  0  0  0  0
    1.5709    1.7889    0.0000 C   0  0  0  0  0  0  0  0  0  0  0  0
   -0.7474   -1.1655    0.0000 C   0  0  0  0  0  0  0  0  0  0  0  0
    0.2333   -1.0830    0.0000 R   0  0  0  0  0  1  0  0  0  0  0  0
   -1.0384   -2.6370    0.0000 O   0  0  0  0  0  0  0  0  0  0  0  0
  1  2  1  0
  2  3  1  0
  2  4  1  0
  4  5  1  1
  4  6  1  0
  6  7  1  0
  7  8  1  0
  8  9  2  0
  9 10  1  0
 10 11  1  0
 10 12  2  0
 12 13  1  0
  4 14  1  0
 14 15  1  0
 14 16  2  0
 13  7  2  0
M  ISO  3   1   1   3   3  15   2
M  END
>  <symbol>  (804) 
D_aMePhe_4Cl

>  <m_abbr>  (804) 
D_aMePhe_4Cl

>  <m_name>  (804) 
D-alpha-methyl-4-chlorophenylalanine

>  <m_type>  (804) 
aa

>  <m_subtype>  (804) 
modified

>  <m_Rgroups>  (804) 
[H],[OH],[H]

>  <m_chem_types>  (804) 
1:backbone_n,2:backbone_c,3:backbone_n_mod

>  <m_activation_policy>  (804) 
canonical-sites-v1

$$$$

     RDKit          2D

 16 16  0  0  0  0  0  0  0  0999 V2000
   -4.4249    0.3264    0.0000 R   0  0  0  0  0  1  0  0  0  0  0  0
   -3.0050    0.8101    0.0000 N   0  0  0  0  0  0  0  0  0  0  0  0
   -2.7140    2.2816    0.0000 R   0  0  0  0  0  1  0  0  0  0  0  0
   -1.8762   -0.1777    0.0000 C   0  0  0  0  0  0  0  0  0  0  0  0
   -2.8640   -1.3065    0.0000 C   0  0  0  0  0  0  0  0  0  0  0  0
   -0.8884    0.9511    0.0000 C   0  0  0  0  0  0  0  0  0  0  0  0
    0.5831    0.6600    0.0000 C   0  0  0  0  0  0  0  0  0  0  0  0
    1.0668   -0.7598    0.0000 C   0  0  0  0  0  0  0  0  0  0  0  0
    2.5383   -1.0509    0.0000 C   0  0  0  0  0  0  0  0  0  0  0  0
    3.5261    0.0779    0.0000 C   0  0  0  0  0  0  0  0  0  0  0  0
    4.9976   -0.2131    0.0000 F   0  0  0  0  0  0  0  0  0  0  0  0
    3.0424    1.4978    0.0000 C   0  0  0  0  0  0  0  0  0  0  0  0
    1.5709    1.7889    0.0000 C   0  0  0  0  0  0  0  0  0  0  0  0
   -0.7474   -1.1655    0.0000 C   0  0  0  0  0  0  0  0  0  0  0  0
    0.2333   -1.0830    0.0000 R   0  0  0  0  0  1  0  0  0  0  0  0
   -1.0384   -2.6370    0.0000 O   0  0  0  0  0  0  0  0  0  0  0  0
  1  2  1  0
  2  3  1  0
  2  4  1  0
  4  5  1  1
  4  6  1  0
  6  7  1  0
  7  8  1  0
  8  9  2  0
  9 10  1  0
 10 11  1  0
 10 12  2  0
 12 13  1  0
  4 14  1  0
 14 15  1  0
 14 16  2  0
 13  7  2  0
M  ISO  3   1   1   3   3  15   2
M  END
>  <symbol>  (805) 
D_aMePhe_4F

>  <m_abbr>  (805) 
D_aMePhe_4F

>  <m_name>  (805) 
D-alpha-methyl-4-fluorophenylalanine

>  <m_type>  (805) 
aa

>  <m_subtype>  (805) 
modified

>  <m_Rgroups>  (805) 
[H],[OH],[H]

>  <m_chem_types>  (805) 
1:backbone_n,2:backbone_c,3:backbone_n_mod

>  <m_activation_policy>  (805) 
canonical-sites-v1

$$$$

     RDKit          2D

 17 17  0  0  0  0  0  0  0  0999 V2000
   -0.1697    1.1304    0.0000 R   0  0  0  0  0  1  0  0  0  0  0  0
   -1.1531    1.1688    0.0000 N   0  0  0  0  0  0  0  0  0  0  0  0
   -1.5100    2.6257    0.0000 R   0  0  0  0  0  1  0  0  0  0  0  0
   -2.2364    0.1312    0.0000 C   0  0  0  0  0  0  0  0  0  0  0  0
   -3.2740    1.2145    0.0000 C   0  0  0  0  0  0  0  0  0  0  0  0
   -1.1989   -0.9521    0.0000 C   0  0  0  0  0  0  0  0  0  0  0  0
    0.2580   -0.5952    0.0000 C   0  0  0  0  0  0  0  0  0  0  0  0
    0.6774    0.8450    0.0000 C   0  0  0  0  0  0  0  0  0  0  0  0
    2.1343    1.2019    0.0000 C   0  0  0  0  0  0  0  0  0  0  0  0
    3.1719    0.1186    0.0000 C   0  0  0  0  0  0  0  0  0  0  0  0
    4.6288    0.4755    0.0000 O   0  0  0  0  0  0  0  0  0  0  0  0
    5.6663   -0.6078    0.0000 C   0  0  0  0  0  0  0  0  0  0  0  0
    2.7525   -1.3216    0.0000 C   0  0  0  0  0  0  0  0  0  0  0  0
    1.2955   -1.6785    0.0000 C   0  0  0  0  0  0  0  0  0  0  0  0
   -3.3197   -0.9063    0.0000 C   0  0  0  0  0  0  0  0  0  0  0  0
   -4.7599   -0.4869    0.0000 R   0  0  0  0  0  1  0  0  0  0  0  0
   -2.9629   -2.3632    0.0000 O   0  0  0  0  0  0  0  0  0  0  0  0
  1  2  1  0
  2  3  1  0
  2  4  1  0
  4  5  1  1
  4  6  1  0
  6  7  1  0
  7  8  1  0
  8  9  2  0
  9 10  1  0
 10 11  1  0
 11 12  1  0
 10 13  2  0
 13 14  1  0
  4 15  1  0
 15 16  1  0
 15 17  2  0
 14  7  2  0
M  ISO  3   1   1   3   3  16   2
M  END
>  <symbol>  (806) 
D_aMePhe_4OMe

>  <m_abbr>  (806) 
D_aMePhe_4OMe

>  <m_name>  (806) 
D-alpha-methyl-4-methoxyphenylalanine

>  <m_type>  (806) 
aa

>  <m_subtype>  (806) 
modified

>  <m_Rgroups>  (806) 
[H],[OH],[H]

>  <m_chem_types>  (806) 
1:backbone_n,2:backbone_c,3:backbone_n_mod

>  <m_activation_policy>  (806) 
canonical-sites-v1

$$$$

     RDKit          2D

 14 13  0  0  0  0  0  0  0  0999 V2000
   -1.8823    2.4488    0.0000 R   0  0  0  0  0  1  0  0  0  0  0  0
   -2.5206    1.0914    0.0000 N   0  0  0  0  0  0  0  0  0  0  0  0
   -4.0153    0.9656    0.0000 R   0  0  0  0  0  1  0  0  0  0  0  0
   -1.6643   -0.1401    0.0000 C   0  0  0  0  0  0  0  0  0  0  0  0
   -2.8958   -0.9964    0.0000 C   0  0  0  0  0  0  0  0  0  0  0  0
   -0.4328    0.7162    0.0000 C   0  0  0  0  0  0  0  0  0  0  0  0
    0.9246    0.0778    0.0000 C   0  0  0  0  0  0  0  0  0  0  0  0
    2.1562    0.9342    0.0000 C   0  0  0  0  0  0  0  0  0  0  0  0
    3.5135    0.2958    0.0000 N   0  0  0  0  0  0  0  0  0  0  0  0
    4.7451    1.1521    0.0000 R   0  0  0  0  0  1  0  0  0  0  0  0
    3.6394   -1.1989    0.0000 R   0  0  0  0  0  1  0  0  0  0  0  0
   -0.8080   -1.3717    0.0000 C   0  0  0  0  0  0  0  0  0  0  0  0
    0.6867   -1.2458    0.0000 R   0  0  0  0  0  1  0  0  0  0  0  0
   -1.4464   -2.7290    0.0000 O   0  0  0  0  0  0  0  0  0  0  0  0
  1  2  1  0
  2  3  1  0
  2  4  1  0
  4  5  1  6
  4  6  1  0
  6  7  1  0
  7  8  1  0
  8  9  1  0
  9 10  1  0
  9 11  1  0
  4 12  1  0
 12 13  1  0
 12 14  2  0
M  ISO  5   1   1   3   3  10   4  11   5  13   2
M  END
>  <symbol>  (807) 
aMeOrn

>  <m_abbr>  (807) 
aMeOrn

>  <m_name>  (807) 
L-alpha-methylornithine

>  <m_type>  (807) 
aa

>  <m_subtype>  (807) 
modified

>  <m_Rgroups>  (807) 
[H],[OH],[H],[H],[H]

>  <m_chem_types>  (807) 
1:backbone_n,2:backbone_c,3:backbone_n_mod,4:amine_primary,5:amine_primary

>  <m_activation_policy>  (807) 
canonical-sites-v1

$$$$

     RDKit          2D

 14 13  0  0  0  0  0  0  0  0999 V2000
   -1.8823    2.4488    0.0000 R   0  0  0  0  0  1  0  0  0  0  0  0
   -2.5206    1.0914    0.0000 N   0  0  0  0  0  0  0  0  0  0  0  0
   -4.0153    0.9656    0.0000 R   0  0  0  0  0  1  0  0  0  0  0  0
   -1.6643   -0.1401    0.0000 C   0  0  0  0  0  0  0  0  0  0  0  0
   -2.8958   -0.9964    0.0000 C   0  0  0  0  0  0  0  0  0  0  0  0
   -0.4328    0.7162    0.0000 C   0  0  0  0  0  0  0  0  0  0  0  0
    0.9246    0.0778    0.0000 C   0  0  0  0  0  0  0  0  0  0  0  0
    2.1562    0.9342    0.0000 C   0  0  0  0  0  0  0  0  0  0  0  0
    3.5135    0.2958    0.0000 N   0  0  0  0  0  0  0  0  0  0  0  0
    4.7451    1.1521    0.0000 R   0  0  0  0  0  1  0  0  0  0  0  0
    3.6394   -1.1989    0.0000 R   0  0  0  0  0  1  0  0  0  0  0  0
   -0.8080   -1.3717    0.0000 C   0  0  0  0  0  0  0  0  0  0  0  0
    0.6867   -1.2458    0.0000 R   0  0  0  0  0  1  0  0  0  0  0  0
   -1.4464   -2.7290    0.0000 O   0  0  0  0  0  0  0  0  0  0  0  0
  1  2  1  0
  2  3  1  0
  2  4  1  0
  4  5  1  1
  4  6  1  0
  6  7  1  0
  7  8  1  0
  8  9  1  0
  9 10  1  0
  9 11  1  0
  4 12  1  0
 12 13  1  0
 12 14  2  0
M  ISO  5   1   1   3   3  10   4  11   5  13   2
M  END
>  <symbol>  (808) 
D_aMeOrn

>  <m_abbr>  (808) 
D_aMeOrn

>  <m_name>  (808) 
D-alpha-methylornithine

>  <m_type>  (808) 
aa

>  <m_subtype>  (808) 
modified

>  <m_Rgroups>  (808) 
[H],[OH],[H],[H],[H]

>  <m_chem_types>  (808) 
1:backbone_n,2:backbone_c,3:backbone_n_mod,4:amine_primary,5:amine_primary

>  <m_activation_policy>  (808) 
canonical-sites-v1

$$$$

     RDKit          2D

 13 12  0  0  0  0  0  0  0  0999 V2000
   -1.0398    2.4415    0.0000 R   0  0  0  0  0  1  0  0  0  0  0  0
   -1.8741    1.1949    0.0000 N   0  0  0  0  0  0  0  0  0  0  0  0
   -3.3709    1.2942    0.0000 R   0  0  0  0  0  1  0  0  0  0  0  0
   -1.2118   -0.1509    0.0000 C   0  0  0  0  0  0  0  0  0  0  0  0
   -2.5576   -0.8133    0.0000 C   0  0  0  0  0  0  0  0  0  0  0  0
    0.1341    0.5115    0.0000 C   0  0  0  0  0  0  0  0  0  0  0  0
    1.3806   -0.3228    0.0000 C   0  0  0  0  0  0  0  0  0  0  0  0
    2.7264    0.3395    0.0000 N   0  0  0  0  0  0  0  0  0  0  0  0
    3.9730   -0.4948    0.0000 R   0  0  0  0  0  1  0  0  0  0  0  0
    2.8257    1.8363    0.0000 R   0  0  0  0  0  1  0  0  0  0  0  0
   -0.5494   -1.4967    0.0000 C   0  0  0  0  0  0  0  0  0  0  0  0
    0.9473   -1.5960    0.0000 R   0  0  0  0  0  1  0  0  0  0  0  0
   -1.3837   -2.7433    0.0000 O   0  0  0  0  0  0  0  0  0  0  0  0
  1  2  1  0
  2  3  1  0
  2  4  1  0
  4  5  1  6
  4  6  1  0
  6  7  1  0
  7  8  1  0
  8  9  1  0
  8 10  1  0
  4 11  1  0
 11 12  1  0
 11 13  2  0
M  ISO  5   1   1   3   3   9   4  10   5  12   2
M  END
>  <symbol>  (809) 
aMeDab

>  <m_abbr>  (809) 
aMeDab

>  <m_name>  (809) 
L-alpha-methyl-2,4-diaminobutyric acid

>  <m_type>  (809) 
aa

>  <m_subtype>  (809) 
modified

>  <m_Rgroups>  (809) 
[H],[OH],[H],[H],[H]

>  <m_chem_types>  (809) 
1:backbone_n,2:backbone_c,3:backbone_n_mod,4:amine_primary,5:amine_primary

>  <m_activation_policy>  (809) 
canonical-sites-v1

$$$$

     RDKit          2D

 13 12  0  0  0  0  0  0  0  0999 V2000
   -1.0398    2.4415    0.0000 R   0  0  0  0  0  1  0  0  0  0  0  0
   -1.8741    1.1949    0.0000 N   0  0  0  0  0  0  0  0  0  0  0  0
   -3.3709    1.2942    0.0000 R   0  0  0  0  0  1  0  0  0  0  0  0
   -1.2118   -0.1509    0.0000 C   0  0  0  0  0  0  0  0  0  0  0  0
   -2.5576   -0.8133    0.0000 C   0  0  0  0  0  0  0  0  0  0  0  0
    0.1341    0.5115    0.0000 C   0  0  0  0  0  0  0  0  0  0  0  0
    1.3806   -0.3228    0.0000 C   0  0  0  0  0  0  0  0  0  0  0  0
    2.7264    0.3395    0.0000 N   0  0  0  0  0  0  0  0  0  0  0  0
    3.9730   -0.4948    0.0000 R   0  0  0  0  0  1  0  0  0  0  0  0
    2.8257    1.8363    0.0000 R   0  0  0  0  0  1  0  0  0  0  0  0
   -0.5494   -1.4967    0.0000 C   0  0  0  0  0  0  0  0  0  0  0  0
    0.9473   -1.5960    0.0000 R   0  0  0  0  0  1  0  0  0  0  0  0
   -1.3837   -2.7433    0.0000 O   0  0  0  0  0  0  0  0  0  0  0  0
  1  2  1  0
  2  3  1  0
  2  4  1  0
  4  5  1  1
  4  6  1  0
  6  7  1  0
  7  8  1  0
  8  9  1  0
  8 10  1  0
  4 11  1  0
 11 12  1  0
 11 13  2  0
M  ISO  5   1   1   3   3   9   4  10   5  12   2
M  END
>  <symbol>  (810) 
D_aMeDab

>  <m_abbr>  (810) 
D_aMeDab

>  <m_name>  (810) 
D-alpha-methyl-2,4-diaminobutyric acid

>  <m_type>  (810) 
aa

>  <m_subtype>  (810) 
modified

>  <m_Rgroups>  (810) 
[H],[OH],[H],[H],[H]

>  <m_chem_types>  (810) 
1:backbone_n,2:backbone_c,3:backbone_n_mod,4:amine_primary,5:amine_primary

>  <m_activation_policy>  (810) 
canonical-sites-v1

$$$$

     RDKit          2D

 12 11  0  0  0  0  0  0  0  0999 V2000
   -1.5970    2.2233    0.0000 R   0  0  0  0  0  1  0  0  0  0  0  0
   -1.8542    0.7455    0.0000 N   0  0  0  0  0  0  0  0  0  0  0  0
   -3.2625    0.2293    0.0000 R   0  0  0  0  0  1  0  0  0  0  0  0
   -0.7029   -0.2161    0.0000 C   0  0  0  0  0  0  0  0  0  0  0  0
   -1.6645   -1.3673    0.0000 C   0  0  0  0  0  0  0  0  0  0  0  0
    0.2587    0.9352    0.0000 C   0  0  0  0  0  0  0  0  0  0  0  0
    1.7365    0.6781    0.0000 N   0  0  0  0  0  0  0  0  0  0  0  0
    2.2351   -0.2951    0.0000 R   0  0  0  0  0  1  0  0  0  0  0  0
    2.6980    1.8293    0.0000 R   0  0  0  0  0  1  0  0  0  0  0  0
    0.4483   -1.1776    0.0000 C   0  0  0  0  0  0  0  0  0  0  0  0
    0.1912   -2.6554    0.0000 R   0  0  0  0  0  1  0  0  0  0  0  0
    1.5133   -0.9293    0.0000 O   0  0  0  0  0  0  0  0  0  0  0  0
  1  2  1  0
  2  3  1  0
  2  4  1  0
  4  5  1  6
  4  6  1  0
  6  7  1  0
  7  8  1  0
  7  9  1  0
  4 10  1  0
 10 11  1  0
 10 12  2  0
M  ISO  5   1   1   3   3   8   4   9   5  11   2
M  END
>  <symbol>  (811) 
aMeDap

>  <m_abbr>  (811) 
aMeDap

>  <m_name>  (811) 
L-alpha-methyl-2,3-diaminopropionic acid

>  <m_type>  (811) 
aa

>  <m_subtype>  (811) 
modified

>  <m_Rgroups>  (811) 
[H],[OH],[H],[H],[H]

>  <m_chem_types>  (811) 
1:backbone_n,2:backbone_c,3:backbone_n_mod,4:amine_primary,5:amine_primary

>  <m_activation_policy>  (811) 
canonical-sites-v1

$$$$

     RDKit          2D

 12 11  0  0  0  0  0  0  0  0999 V2000
   -1.5970    2.2233    0.0000 R   0  0  0  0  0  1  0  0  0  0  0  0
   -1.8542    0.7455    0.0000 N   0  0  0  0  0  0  0  0  0  0  0  0
   -3.2625    0.2293    0.0000 R   0  0  0  0  0  1  0  0  0  0  0  0
   -0.7029   -0.2161    0.0000 C   0  0  0  0  0  0  0  0  0  0  0  0
   -1.6645   -1.3673    0.0000 C   0  0  0  0  0  0  0  0  0  0  0  0
    0.2587    0.9352    0.0000 C   0  0  0  0  0  0  0  0  0  0  0  0
    1.7365    0.6781    0.0000 N   0  0  0  0  0  0  0  0  0  0  0  0
    2.2351   -0.2951    0.0000 R   0  0  0  0  0  1  0  0  0  0  0  0
    2.6980    1.8293    0.0000 R   0  0  0  0  0  1  0  0  0  0  0  0
    0.4483   -1.1776    0.0000 C   0  0  0  0  0  0  0  0  0  0  0  0
    0.1912   -2.6554    0.0000 R   0  0  0  0  0  1  0  0  0  0  0  0
    1.5133   -0.9293    0.0000 O   0  0  0  0  0  0  0  0  0  0  0  0
  1  2  1  0
  2  3  1  0
  2  4  1  0
  4  5  1  1
  4  6  1  0
  6  7  1  0
  7  8  1  0
  7  9  1  0
  4 10  1  0
 10 11  1  0
 10 12  2  0
M  ISO  5   1   1   3   3   8   4   9   5  11   2
M  END
>  <symbol>  (812) 
D_aMeDap

>  <m_abbr>  (812) 
D_aMeDap

>  <m_name>  (812) 
D-alpha-methyl-2,3-diaminopropionic acid

>  <m_type>  (812) 
aa

>  <m_subtype>  (812) 
modified

>  <m_Rgroups>  (812) 
[H],[OH],[H],[H],[H]

>  <m_chem_types>  (812) 
1:backbone_n,2:backbone_c,3:backbone_n_mod,4:amine_primary,5:amine_primary

>  <m_activation_policy>  (812) 
canonical-sites-v1

$$$$

     RDKit          2D

 16 16  0  0  0  0  0  0  0  0999 V2000
   -4.4249    0.3264    0.0000 R   0  0  0  0  0  1  0  0  0  0  0  0
   -3.0050    0.8101    0.0000 N   0  0  0  0  0  0  0  0  0  0  0  0
   -2.7140    2.2816    0.0000 R   0  0  0  0  0  1  0  0  0  0  0  0
   -1.8762   -0.1777    0.0000 C   0  0  0  0  0  0  0  0  0  0  0  0
   -2.8640   -1.3065    0.0000 C   0  0  0  0  0  0  0  0  0  0  0  0
   -0.8884    0.9511    0.0000 C   0  0  0  0  0  0  0  0  0  0  0  0
    0.5831    0.6600    0.0000 C   0  0  0  0  0  0  0  0  0  0  0  0
    1.0668   -0.7598    0.0000 C   0  0  0  0  0  0  0  0  0  0  0  0
    2.5383   -1.0509    0.0000 C   0  0  0  0  0  0  0  0  0  0  0  0
    3.5261    0.0779    0.0000 C   0  0  0  0  0  0  0  0  0  0  0  0
    4.9976   -0.2131    0.0000 Br  0  0  0  0  0  0  0  0  0  0  0  0
    3.0424    1.4978    0.0000 C   0  0  0  0  0  0  0  0  0  0  0  0
    1.5709    1.7889    0.0000 C   0  0  0  0  0  0  0  0  0  0  0  0
   -0.7474   -1.1655    0.0000 C   0  0  0  0  0  0  0  0  0  0  0  0
    0.2333   -1.0830    0.0000 R   0  0  0  0  0  1  0  0  0  0  0  0
   -1.0384   -2.6370    0.0000 O   0  0  0  0  0  0  0  0  0  0  0  0
  1  2  1  0
  2  3  1  0
  2  4  1  0
  4  5  1  6
  4  6  1  0
  6  7  1  0
  7  8  1  0
  8  9  2  0
  9 10  1  0
 10 11  1  0
 10 12  2  0
 12 13  1  0
  4 14  1  0
 14 15  1  0
 14 16  2  0
 13  7  2  0
M  ISO  3   1   1   3   3  15   2
M  END
>  <symbol>  (813) 
aMePhe_4Br

>  <m_abbr>  (813) 
aMePhe_4Br

>  <m_name>  (813) 
L-alpha-methyl-4-bromophenylalanine

>  <m_type>  (813) 
aa

>  <m_subtype>  (813) 
modified

>  <m_Rgroups>  (813) 
[H],[OH],[H]

>  <m_chem_types>  (813) 
1:backbone_n,2:backbone_c,3:backbone_n_mod

>  <m_activation_policy>  (813) 
canonical-sites-v1

$$$$

     RDKit          2D

 16 16  0  0  0  0  0  0  0  0999 V2000
   -4.4249    0.3264    0.0000 R   0  0  0  0  0  1  0  0  0  0  0  0
   -3.0050    0.8101    0.0000 N   0  0  0  0  0  0  0  0  0  0  0  0
   -2.7140    2.2816    0.0000 R   0  0  0  0  0  1  0  0  0  0  0  0
   -1.8762   -0.1777    0.0000 C   0  0  0  0  0  0  0  0  0  0  0  0
   -2.8640   -1.3065    0.0000 C   0  0  0  0  0  0  0  0  0  0  0  0
   -0.8884    0.9511    0.0000 C   0  0  0  0  0  0  0  0  0  0  0  0
    0.5831    0.6600    0.0000 C   0  0  0  0  0  0  0  0  0  0  0  0
    1.0668   -0.7598    0.0000 C   0  0  0  0  0  0  0  0  0  0  0  0
    2.5383   -1.0509    0.0000 C   0  0  0  0  0  0  0  0  0  0  0  0
    3.5261    0.0779    0.0000 C   0  0  0  0  0  0  0  0  0  0  0  0
    4.9976   -0.2131    0.0000 Br  0  0  0  0  0  0  0  0  0  0  0  0
    3.0424    1.4978    0.0000 C   0  0  0  0  0  0  0  0  0  0  0  0
    1.5709    1.7889    0.0000 C   0  0  0  0  0  0  0  0  0  0  0  0
   -0.7474   -1.1655    0.0000 C   0  0  0  0  0  0  0  0  0  0  0  0
    0.2333   -1.0830    0.0000 R   0  0  0  0  0  1  0  0  0  0  0  0
   -1.0384   -2.6370    0.0000 O   0  0  0  0  0  0  0  0  0  0  0  0
  1  2  1  0
  2  3  1  0
  2  4  1  0
  4  5  1  1
  4  6  1  0
  6  7  1  0
  7  8  1  0
  8  9  2  0
  9 10  1  0
 10 11  1  0
 10 12  2  0
 12 13  1  0
  4 14  1  0
 14 15  1  0
 14 16  2  0
 13  7  2  0
M  ISO  3   1   1   3   3  15   2
M  END
>  <symbol>  (814) 
D_aMePhe_4Br

>  <m_abbr>  (814) 
D_aMePhe_4Br

>  <m_name>  (814) 
D-alpha-methyl-4-bromophenylalanine

>  <m_type>  (814) 
aa

>  <m_subtype>  (814) 
modified

>  <m_Rgroups>  (814) 
[H],[OH],[H]

>  <m_chem_types>  (814) 
1:backbone_n,2:backbone_c,3:backbone_n_mod

>  <m_activation_policy>  (814) 
canonical-sites-v1

$$$$

     RDKit          2D

 19 19  0  0  0  0  0  0  0  0999 V2000
   -5.2990   -0.2477    0.0000 R   0  0  0  0  0  1  0  0  0  0  0  0
   -3.8911   -0.7655    0.0000 N   0  0  0  0  0  0  0  0  0  0  0  0
   -3.6356   -2.2436    0.0000 R   0  0  0  0  0  1  0  0  0  0  0  0
   -2.7388    0.1948    0.0000 C   0  0  0  0  0  0  0  0  0  0  0  0
   -3.6992    1.3471    0.0000 C   0  0  0  0  0  0  0  0  0  0  0  0
   -1.7785   -0.9575    0.0000 C   0  0  0  0  0  0  0  0  0  0  0  0
   -0.3004   -0.7020    0.0000 C   0  0  0  0  0  0  0  0  0  0  0  0
    0.2173    0.7058    0.0000 C   0  0  0  0  0  0  0  0  0  0  0  0
    1.6954    0.9613    0.0000 C   0  0  0  0  0  0  0  0  0  0  0  0
    2.6557   -0.1910    0.0000 C   0  0  0  0  0  0  0  0  0  0  0  0
    4.1338    0.0646    0.0000 C   0  0  0  0  0  0  0  0  0  0  0  0
    5.6119    0.3201    0.0000 F   0  0  0  0  0  0  0  0  0  0  0  0
    4.3893   -1.4135    0.0000 F   0  0  0  0  0  0  0  0  0  0  0  0
    3.8783    1.5426    0.0000 F   0  0  0  0  0  0  0  0  0  0  0  0
    2.1379   -1.5988    0.0000 C   0  0  0  0  0  0  0  0  0  0  0  0
    0.6599   -1.8543    0.0000 C   0  0  0  0  0  0  0  0  0  0  0  0
   -1.5865    1.1551    0.0000 C   0  0  0  0  0  0  0  0  0  0  0  0
   -1.8421    2.6332    0.0000 R   0  0  0  0  0  1  0  0  0  0  0  0
   -0.6081    1.0490    0.0000 O   0  0  0  0  0  0  0  0  0  0  0  0
  1  2  1  0
  2  3  1  0
  2  4  1  0
  4  5  1  1
  4  6  1  0
  6  7  1  0
  7  8  1  0
  8  9  2  0
  9 10  1  0
 10 11  1  0
 11 12  1  0
 11 13  1  0
 11 14  1  0
 10 15  2  0
 15 16  1  0
  4 17  1  0
 17 18  1  0
 17 19  2  0
 16  7  2  0
M  ISO  3   1   1   3   3  18   2
M  END
>  <symbol>  (815) 
aMePhe_4CF3

>  <m_abbr>  (815) 
aMePhe_4CF3

>  <m_name>  (815) 
L-alpha-methyl-4-(trifluoromethyl)phenylalanine

>  <m_type>  (815) 
aa

>  <m_subtype>  (815) 
modified

>  <m_Rgroups>  (815) 
[H],[OH],[H]

>  <m_chem_types>  (815) 
1:backbone_n,2:backbone_c,3:backbone_n_mod

>  <m_activation_policy>  (815) 
canonical-sites-v1

$$$$

     RDKit          2D

 19 19  0  0  0  0  0  0  0  0999 V2000
   -5.2990   -0.2477    0.0000 R   0  0  0  0  0  1  0  0  0  0  0  0
   -3.8911   -0.7655    0.0000 N   0  0  0  0  0  0  0  0  0  0  0  0
   -3.6356   -2.2436    0.0000 R   0  0  0  0  0  1  0  0  0  0  0  0
   -2.7388    0.1948    0.0000 C   0  0  0  0  0  0  0  0  0  0  0  0
   -3.6992    1.3471    0.0000 C   0  0  0  0  0  0  0  0  0  0  0  0
   -1.7785   -0.9575    0.0000 C   0  0  0  0  0  0  0  0  0  0  0  0
   -0.3004   -0.7020    0.0000 C   0  0  0  0  0  0  0  0  0  0  0  0
    0.2173    0.7058    0.0000 C   0  0  0  0  0  0  0  0  0  0  0  0
    1.6954    0.9613    0.0000 C   0  0  0  0  0  0  0  0  0  0  0  0
    2.6557   -0.1910    0.0000 C   0  0  0  0  0  0  0  0  0  0  0  0
    4.1338    0.0646    0.0000 C   0  0  0  0  0  0  0  0  0  0  0  0
    5.6119    0.3201    0.0000 F   0  0  0  0  0  0  0  0  0  0  0  0
    4.3893   -1.4135    0.0000 F   0  0  0  0  0  0  0  0  0  0  0  0
    3.8783    1.5426    0.0000 F   0  0  0  0  0  0  0  0  0  0  0  0
    2.1379   -1.5988    0.0000 C   0  0  0  0  0  0  0  0  0  0  0  0
    0.6599   -1.8543    0.0000 C   0  0  0  0  0  0  0  0  0  0  0  0
   -1.5865    1.1551    0.0000 C   0  0  0  0  0  0  0  0  0  0  0  0
   -1.8421    2.6332    0.0000 R   0  0  0  0  0  1  0  0  0  0  0  0
   -0.6081    1.0490    0.0000 O   0  0  0  0  0  0  0  0  0  0  0  0
  1  2  1  0
  2  3  1  0
  2  4  1  0
  4  5  1  6
  4  6  1  0
  6  7  1  0
  7  8  1  0
  8  9  2  0
  9 10  1  0
 10 11  1  0
 11 12  1  0
 11 13  1  0
 11 14  1  0
 10 15  2  0
 15 16  1  0
  4 17  1  0
 17 18  1  0
 17 19  2  0
 16  7  2  0
M  ISO  3   1   1   3   3  18   2
M  END
>  <symbol>  (816) 
D_aMePhe_4CF3

>  <m_abbr>  (816) 
D_aMePhe_4CF3

>  <m_name>  (816) 
D-alpha-methyl-4-(trifluoromethyl)phenylalanine

>  <m_type>  (816) 
aa

>  <m_subtype>  (816) 
modified

>  <m_Rgroups>  (816) 
[H],[OH],[H]

>  <m_chem_types>  (816) 
1:backbone_n,2:backbone_c,3:backbone_n_mod

>  <m_activation_policy>  (816) 
canonical-sites-v1

$$$$

     RDKit          2D

 17 17  0  0  0  0  0  0  0  0999 V2000
   -0.1204    1.0568    0.0000 R   0  0  0  0  0  1  0  0  0  0  0  0
   -1.0987    1.1642    0.0000 N   0  0  0  0  0  0  0  0  0  0  0  0
   -1.3523    2.6426    0.0000 R   0  0  0  0  0  1  0  0  0  0  0  0
   -2.2522    0.2054    0.0000 C   0  0  0  0  0  0  0  0  0  0  0  0
   -3.2110    1.3589    0.0000 C   0  0  0  0  0  0  0  0  0  0  0  0
   -1.2934   -0.9482    0.0000 C   0  0  0  0  0  0  0  0  0  0  0  0
    0.1850   -0.6946    0.0000 C   0  0  0  0  0  0  0  0  0  0  0  0
    0.7046    0.7125    0.0000 C   0  0  0  0  0  0  0  0  0  0  0  0
    2.1830    0.9661    0.0000 C   0  0  0  0  0  0  0  0  0  0  0  0
    3.1418   -0.1875    0.0000 C   0  0  0  0  0  0  0  0  0  0  0  0
    4.6202    0.0661    0.0000 C   0  0  0  0  0  0  0  0  0  0  0  0
    6.0986    0.3196    0.0000 N   0  0  0  0  0  0  0  0  0  0  0  0
    2.6222   -1.5946    0.0000 C   0  0  0  0  0  0  0  0  0  0  0  0
    1.1438   -1.8482    0.0000 C   0  0  0  0  0  0  0  0  0  0  0  0
   -3.4058   -0.7534    0.0000 C   0  0  0  0  0  0  0  0  0  0  0  0
   -4.8129   -0.2338    0.0000 R   0  0  0  0  0  1  0  0  0  0  0  0
   -3.1522   -2.2318    0.0000 O   0  0  0  0  0  0  0  0  0  0  0  0
  1  2  1  0
  2  3  1  0
  2  4  1  0
  4  5  1  6
  4  6  1  0
  6  7  1  0
  7  8  1  0
  8  9  2  0
  9 10  1  0
 10 11  1  0
 11 12  3  0
 10 13  2  0
 13 14  1  0
  4 15  1  0
 15 16  1  0
 15 17  2  0
 14  7  2  0
M  ISO  3   1   1   3   3  16   2
M  END
>  <symbol>  (817) 
aMePhe_4CN

>  <m_abbr>  (817) 
aMePhe_4CN

>  <m_name>  (817) 
L-alpha-methyl-4-cyanophenylalanine

>  <m_type>  (817) 
aa

>  <m_subtype>  (817) 
modified

>  <m_Rgroups>  (817) 
[H],[OH],[H]

>  <m_chem_types>  (817) 
1:backbone_n,2:backbone_c,3:backbone_n_mod

>  <m_activation_policy>  (817) 
canonical-sites-v1

$$$$

     RDKit          2D

 17 17  0  0  0  0  0  0  0  0999 V2000
   -0.1204    1.0568    0.0000 R   0  0  0  0  0  1  0  0  0  0  0  0
   -1.0987    1.1642    0.0000 N   0  0  0  0  0  0  0  0  0  0  0  0
   -1.3523    2.6426    0.0000 R   0  0  0  0  0  1  0  0  0  0  0  0
   -2.2522    0.2054    0.0000 C   0  0  0  0  0  0  0  0  0  0  0  0
   -3.2110    1.3589    0.0000 C   0  0  0  0  0  0  0  0  0  0  0  0
   -1.2934   -0.9482    0.0000 C   0  0  0  0  0  0  0  0  0  0  0  0
    0.1850   -0.6946    0.0000 C   0  0  0  0  0  0  0  0  0  0  0  0
    0.7046    0.7125    0.0000 C   0  0  0  0  0  0  0  0  0  0  0  0
    2.1830    0.9661    0.0000 C   0  0  0  0  0  0  0  0  0  0  0  0
    3.1418   -0.1875    0.0000 C   0  0  0  0  0  0  0  0  0  0  0  0
    4.6202    0.0661    0.0000 C   0  0  0  0  0  0  0  0  0  0  0  0
    6.0986    0.3196    0.0000 N   0  0  0  0  0  0  0  0  0  0  0  0
    2.6222   -1.5946    0.0000 C   0  0  0  0  0  0  0  0  0  0  0  0
    1.1438   -1.8482    0.0000 C   0  0  0  0  0  0  0  0  0  0  0  0
   -3.4058   -0.7534    0.0000 C   0  0  0  0  0  0  0  0  0  0  0  0
   -4.8129   -0.2338    0.0000 R   0  0  0  0  0  1  0  0  0  0  0  0
   -3.1522   -2.2318    0.0000 O   0  0  0  0  0  0  0  0  0  0  0  0
  1  2  1  0
  2  3  1  0
  2  4  1  0
  4  5  1  1
  4  6  1  0
  6  7  1  0
  7  8  1  0
  8  9  2  0
  9 10  1  0
 10 11  1  0
 11 12  3  0
 10 13  2  0
 13 14  1  0
  4 15  1  0
 15 16  1  0
 15 17  2  0
 14  7  2  0
M  ISO  3   1   1   3   3  16   2
M  END
>  <symbol>  (818) 
D_aMePhe_4CN

>  <m_abbr>  (818) 
D_aMePhe_4CN

>  <m_name>  (818) 
D-alpha-methyl-4-cyanophenylalanine

>  <m_type>  (818) 
aa

>  <m_subtype>  (818) 
modified

>  <m_Rgroups>  (818) 
[H],[OH],[H]

>  <m_chem_types>  (818) 
1:backbone_n,2:backbone_c,3:backbone_n_mod

>  <m_activation_policy>  (818) 
canonical-sites-v1

$$$$

     RDKit          2D

 16 16  0  0  0  0  0  0  0  0999 V2000
   -4.4249    0.3264    0.0000 R   0  0  0  0  0  1  0  0  0  0  0  0
   -3.0050    0.8101    0.0000 N   0  0  0  0  0  0  0  0  0  0  0  0
   -2.7140    2.2816    0.0000 R   0  0  0  0  0  1  0  0  0  0  0  0
   -1.8762   -0.1777    0.0000 C   0  0  0  0  0  0  0  0  0  0  0  0
   -2.8640   -1.3065    0.0000 C   0  0  0  0  0  0  0  0  0  0  0  0
   -0.8884    0.9511    0.0000 C   0  0  0  0  0  0  0  0  0  0  0  0
    0.5831    0.6600    0.0000 C   0  0  0  0  0  0  0  0  0  0  0  0
    1.0668   -0.7598    0.0000 C   0  0  0  0  0  0  0  0  0  0  0  0
    2.5383   -1.0509    0.0000 C   0  0  0  0  0  0  0  0  0  0  0  0
    3.5261    0.0779    0.0000 C   0  0  0  0  0  0  0  0  0  0  0  0
    4.9976   -0.2131    0.0000 C   0  0  0  0  0  0  0  0  0  0  0  0
    3.0424    1.4978    0.0000 C   0  0  0  0  0  0  0  0  0  0  0  0
    1.5709    1.7889    0.0000 C   0  0  0  0  0  0  0  0  0  0  0  0
   -0.7474   -1.1655    0.0000 C   0  0  0  0  0  0  0  0  0  0  0  0
    0.2333   -1.0830    0.0000 R   0  0  0  0  0  1  0  0  0  0  0  0
   -1.0384   -2.6370    0.0000 O   0  0  0  0  0  0  0  0  0  0  0  0
  1  2  1  0
  2  3  1  0
  2  4  1  0
  4  5  1  6
  4  6  1  0
  6  7  1  0
  7  8  1  0
  8  9  2  0
  9 10  1  0
 10 11  1  0
 10 12  2  0
 12 13  1  0
  4 14  1  0
 14 15  1  0
 14 16  2  0
 13  7  2  0
M  ISO  3   1   1   3   3  15   2
M  END
>  <symbol>  (819) 
aMePhe_4Me

>  <m_abbr>  (819) 
aMePhe_4Me

>  <m_name>  (819) 
L-alpha-methyl-4-methylphenylalanine

>  <m_type>  (819) 
aa

>  <m_subtype>  (819) 
modified

>  <m_Rgroups>  (819) 
[H],[OH],[H]

>  <m_chem_types>  (819) 
1:backbone_n,2:backbone_c,3:backbone_n_mod

>  <m_activation_policy>  (819) 
canonical-sites-v1

$$$$

     RDKit          2D

 16 16  0  0  0  0  0  0  0  0999 V2000
   -4.4249    0.3264    0.0000 R   0  0  0  0  0  1  0  0  0  0  0  0
   -3.0050    0.8101    0.0000 N   0  0  0  0  0  0  0  0  0  0  0  0
   -2.7140    2.2816    0.0000 R   0  0  0  0  0  1  0  0  0  0  0  0
   -1.8762   -0.1777    0.0000 C   0  0  0  0  0  0  0  0  0  0  0  0
   -2.8640   -1.3065    0.0000 C   0  0  0  0  0  0  0  0  0  0  0  0
   -0.8884    0.9511    0.0000 C   0  0  0  0  0  0  0  0  0  0  0  0
    0.5831    0.6600    0.0000 C   0  0  0  0  0  0  0  0  0  0  0  0
    1.0668   -0.7598    0.0000 C   0  0  0  0  0  0  0  0  0  0  0  0
    2.5383   -1.0509    0.0000 C   0  0  0  0  0  0  0  0  0  0  0  0
    3.5261    0.0779    0.0000 C   0  0  0  0  0  0  0  0  0  0  0  0
    4.9976   -0.2131    0.0000 C   0  0  0  0  0  0  0  0  0  0  0  0
    3.0424    1.4978    0.0000 C   0  0  0  0  0  0  0  0  0  0  0  0
    1.5709    1.7889    0.0000 C   0  0  0  0  0  0  0  0  0  0  0  0
   -0.7474   -1.1655    0.0000 C   0  0  0  0  0  0  0  0  0  0  0  0
    0.2333   -1.0830    0.0000 R   0  0  0  0  0  1  0  0  0  0  0  0
   -1.0384   -2.6370    0.0000 O   0  0  0  0  0  0  0  0  0  0  0  0
  1  2  1  0
  2  3  1  0
  2  4  1  0
  4  5  1  1
  4  6  1  0
  6  7  1  0
  7  8  1  0
  8  9  2  0
  9 10  1  0
 10 11  1  0
 10 12  2  0
 12 13  1  0
  4 14  1  0
 14 15  1  0
 14 16  2  0
 13  7  2  0
M  ISO  3   1   1   3   3  15   2
M  END
>  <symbol>  (820) 
D_aMePhe_4Me

>  <m_abbr>  (820) 
D_aMePhe_4Me

>  <m_name>  (820) 
D-alpha-methyl-4-methylphenylalanine

>  <m_type>  (820) 
aa

>  <m_subtype>  (820) 
modified

>  <m_Rgroups>  (820) 
[H],[OH],[H]

>  <m_chem_types>  (820) 
1:backbone_n,2:backbone_c,3:backbone_n_mod

>  <m_activation_policy>  (820) 
canonical-sites-v1

$$$$

     RDKit          2D

 19 19  0  0  0  0  0  0  0  0999 V2000
   -5.2990   -0.2477    0.0000 R   0  0  0  0  0  1  0  0  0  0  0  0
   -3.8911   -0.7655    0.0000 N   0  0  0  0  0  0  0  0  0  0  0  0
   -3.6356   -2.2436    0.0000 R   0  0  0  0  0  1  0  0  0  0  0  0
   -2.7388    0.1948    0.0000 C   0  0  0  0  0  0  0  0  0  0  0  0
   -3.6992    1.3471    0.0000 C   0  0  0  0  0  0  0  0  0  0  0  0
   -1.7785   -0.9575    0.0000 C   0  0  0  0  0  0  0  0  0  0  0  0
   -0.3004   -0.7020    0.0000 C   0  0  0  0  0  0  0  0  0  0  0  0
    0.2173    0.7058    0.0000 C   0  0  0  0  0  0  0  0  0  0  0  0
    1.6954    0.9613    0.0000 C   0  0  0  0  0  0  0  0  0  0  0  0
    2.6557   -0.1910    0.0000 C   0  0  0  0  0  0  0  0  0  0  0  0
    4.1338    0.0646    0.0000 C   0  0  0  0  0  0  0  0  0  0  0  0
    4.3893   -1.4135    0.0000 C   0  0  0  0  0  0  0  0  0  0  0  0
    3.8783    1.5426    0.0000 C   0  0  0  0  0  0  0  0  0  0  0  0
    5.6119    0.3201    0.0000 C   0  0  0  0  0  0  0  0  0  0  0  0
    2.1379   -1.5988    0.0000 C   0  0  0  0  0  0  0  0  0  0  0  0
    0.6599   -1.8543    0.0000 C   0  0  0  0  0  0  0  0  0  0  0  0
   -1.5865    1.1551    0.0000 C   0  0  0  0  0  0  0  0  0  0  0  0
   -1.8421    2.6332    0.0000 R   0  0  0  0  0  1  0  0  0  0  0  0
   -0.6081    1.0490    0.0000 O   0  0  0  0  0  0  0  0  0  0  0  0
  1  2  1  0
  2  3  1  0
  2  4  1  0
  4  5  1  1
  4  6  1  0
  6  7  1  0
  7  8  1  0
  8  9  2  0
  9 10  1  0
 10 11  1  0
 11 12  1  0
 11 13  1  0
 11 14  1  0
 10 15  2  0
 15 16  1  0
  4 17  1  0
 17 18  1  0
 17 19  2  0
 16  7  2  0
M  ISO  3   1   1   3   3  18   2
M  END
>  <symbol>  (821) 
aMePhe_4tBu

>  <m_abbr>  (821) 
aMePhe_4tBu

>  <m_name>  (821) 
L-alpha-methyl-4-tert-butylphenylalanine

>  <m_type>  (821) 
aa

>  <m_subtype>  (821) 
modified

>  <m_Rgroups>  (821) 
[H],[OH],[H]

>  <m_chem_types>  (821) 
1:backbone_n,2:backbone_c,3:backbone_n_mod

>  <m_activation_policy>  (821) 
canonical-sites-v1

$$$$

     RDKit          2D

 19 19  0  0  0  0  0  0  0  0999 V2000
   -5.2990   -0.2477    0.0000 R   0  0  0  0  0  1  0  0  0  0  0  0
   -3.8911   -0.7655    0.0000 N   0  0  0  0  0  0  0  0  0  0  0  0
   -3.6356   -2.2436    0.0000 R   0  0  0  0  0  1  0  0  0  0  0  0
   -2.7388    0.1948    0.0000 C   0  0  0  0  0  0  0  0  0  0  0  0
   -3.6992    1.3471    0.0000 C   0  0  0  0  0  0  0  0  0  0  0  0
   -1.7785   -0.9575    0.0000 C   0  0  0  0  0  0  0  0  0  0  0  0
   -0.3004   -0.7020    0.0000 C   0  0  0  0  0  0  0  0  0  0  0  0
    0.2173    0.7058    0.0000 C   0  0  0  0  0  0  0  0  0  0  0  0
    1.6954    0.9613    0.0000 C   0  0  0  0  0  0  0  0  0  0  0  0
    2.6557   -0.1910    0.0000 C   0  0  0  0  0  0  0  0  0  0  0  0
    4.1338    0.0646    0.0000 C   0  0  0  0  0  0  0  0  0  0  0  0
    4.3893   -1.4135    0.0000 C   0  0  0  0  0  0  0  0  0  0  0  0
    3.8783    1.5426    0.0000 C   0  0  0  0  0  0  0  0  0  0  0  0
    5.6119    0.3201    0.0000 C   0  0  0  0  0  0  0  0  0  0  0  0
    2.1379   -1.5988    0.0000 C   0  0  0  0  0  0  0  0  0  0  0  0
    0.6599   -1.8543    0.0000 C   0  0  0  0  0  0  0  0  0  0  0  0
   -1.5865    1.1551    0.0000 C   0  0  0  0  0  0  0  0  0  0  0  0
   -1.8421    2.6332    0.0000 R   0  0  0  0  0  1  0  0  0  0  0  0
   -0.6081    1.0490    0.0000 O   0  0  0  0  0  0  0  0  0  0  0  0
  1  2  1  0
  2  3  1  0
  2  4  1  0
  4  5  1  6
  4  6  1  0
  6  7  1  0
  7  8  1  0
  8  9  2  0
  9 10  1  0
 10 11  1  0
 11 12  1  0
 11 13  1  0
 11 14  1  0
 10 15  2  0
 15 16  1  0
  4 17  1  0
 17 18  1  0
 17 19  2  0
 16  7  2  0
M  ISO  3   1   1   3   3  18   2
M  END
>  <symbol>  (822) 
D_aMePhe_4tBu

>  <m_abbr>  (822) 
D_aMePhe_4tBu

>  <m_name>  (822) 
D-alpha-methyl-4-tert-butylphenylalanine

>  <m_type>  (822) 
aa

>  <m_subtype>  (822) 
modified

>  <m_Rgroups>  (822) 
[H],[OH],[H]

>  <m_chem_types>  (822) 
1:backbone_n,2:backbone_c,3:backbone_n_mod

>  <m_activation_policy>  (822) 
canonical-sites-v1

$$$$

     RDKit          2D

 16 16  0  0  0  0  0  0  0  0999 V2000
   -4.2754    0.8898    0.0000 R   0  0  0  0  0  1  0  0  0  0  0  0
   -2.7939    1.1247    0.0000 N   0  0  0  0  0  0  0  0  0  0  0  0
   -2.2565    2.5252    0.0000 R   0  0  0  0  0  1  0  0  0  0  0  0
   -1.8497   -0.0409    0.0000 C   0  0  0  0  0  0  0  0  0  0  0  0
   -3.0153   -0.9850    0.0000 C   0  0  0  0  0  0  0  0  0  0  0  0
   -0.6841    0.9033    0.0000 C   0  0  0  0  0  0  0  0  0  0  0  0
    0.7163    0.3659    0.0000 C   0  0  0  0  0  0  0  0  0  0  0  0
    0.9512   -1.1156    0.0000 C   0  0  0  0  0  0  0  0  0  0  0  0
    2.3516   -1.6529    0.0000 C   0  0  0  0  0  0  0  0  0  0  0  0
    3.5172   -0.7088    0.0000 C   0  0  0  0  0  0  0  0  0  0  0  0
    3.2823    0.7727    0.0000 C   0  0  0  0  0  0  0  0  0  0  0  0
    4.4479    1.7169    0.0000 F   0  0  0  0  0  0  0  0  0  0  0  0
    1.8819    1.3101    0.0000 C   0  0  0  0  0  0  0  0  0  0  0  0
   -0.9056   -1.2065    0.0000 C   0  0  0  0  0  0  0  0  0  0  0  0
    0.0749   -1.2921    0.0000 R   0  0  0  0  0  1  0  0  0  0  0  0
   -1.4429   -2.6069    0.0000 O   0  0  0  0  0  0  0  0  0  0  0  0
  1  2  1  0
  2  3  1  0
  2  4  1  0
  4  5  1  6
  4  6  1  0
  6  7  1  0
  7  8  2  0
  8  9  1  0
  9 10  2  0
 10 11  1  0
 11 12  1  0
 11 13  2  0
  4 14  1  0
 14 15  1  0
 14 16  2  0
 13  7  1  0
M  ISO  3   1   1   3   3  15   2
M  END
>  <symbol>  (823) 
aMePhe_3F

>  <m_abbr>  (823) 
aMePhe_3F

>  <m_name>  (823) 
L-alpha-methyl-3-fluorophenylalanine

>  <m_type>  (823) 
aa

>  <m_subtype>  (823) 
modified

>  <m_Rgroups>  (823) 
[H],[OH],[H]

>  <m_chem_types>  (823) 
1:backbone_n,2:backbone_c,3:backbone_n_mod

>  <m_activation_policy>  (823) 
canonical-sites-v1

$$$$

     RDKit          2D

 16 16  0  0  0  0  0  0  0  0999 V2000
   -4.2754    0.8898    0.0000 R   0  0  0  0  0  1  0  0  0  0  0  0
   -2.7939    1.1247    0.0000 N   0  0  0  0  0  0  0  0  0  0  0  0
   -2.2565    2.5252    0.0000 R   0  0  0  0  0  1  0  0  0  0  0  0
   -1.8497   -0.0409    0.0000 C   0  0  0  0  0  0  0  0  0  0  0  0
   -3.0153   -0.9850    0.0000 C   0  0  0  0  0  0  0  0  0  0  0  0
   -0.6841    0.9033    0.0000 C   0  0  0  0  0  0  0  0  0  0  0  0
    0.7163    0.3659    0.0000 C   0  0  0  0  0  0  0  0  0  0  0  0
    0.9512   -1.1156    0.0000 C   0  0  0  0  0  0  0  0  0  0  0  0
    2.3516   -1.6529    0.0000 C   0  0  0  0  0  0  0  0  0  0  0  0
    3.5172   -0.7088    0.0000 C   0  0  0  0  0  0  0  0  0  0  0  0
    3.2823    0.7727    0.0000 C   0  0  0  0  0  0  0  0  0  0  0  0
    4.4479    1.7169    0.0000 F   0  0  0  0  0  0  0  0  0  0  0  0
    1.8819    1.3101    0.0000 C   0  0  0  0  0  0  0  0  0  0  0  0
   -0.9056   -1.2065    0.0000 C   0  0  0  0  0  0  0  0  0  0  0  0
    0.0749   -1.2921    0.0000 R   0  0  0  0  0  1  0  0  0  0  0  0
   -1.4429   -2.6069    0.0000 O   0  0  0  0  0  0  0  0  0  0  0  0
  1  2  1  0
  2  3  1  0
  2  4  1  0
  4  5  1  1
  4  6  1  0
  6  7  1  0
  7  8  2  0
  8  9  1  0
  9 10  2  0
 10 11  1  0
 11 12  1  0
 11 13  2  0
  4 14  1  0
 14 15  1  0
 14 16  2  0
 13  7  1  0
M  ISO  3   1   1   3   3  15   2
M  END
>  <symbol>  (824) 
D_aMePhe_3F

>  <m_abbr>  (824) 
D_aMePhe_3F

>  <m_name>  (824) 
D-alpha-methyl-3-fluorophenylalanine

>  <m_type>  (824) 
aa

>  <m_subtype>  (824) 
modified

>  <m_Rgroups>  (824) 
[H],[OH],[H]

>  <m_chem_types>  (824) 
1:backbone_n,2:backbone_c,3:backbone_n_mod

>  <m_activation_policy>  (824) 
canonical-sites-v1

$$$$

     RDKit          2D

 19 20  0  0  0  0  0  0  0  0999 V2000
   -4.3926    1.7995    0.0000 R   0  0  0  0  0  1  0  0  0  0  0  0
   -2.9098    1.5726    0.0000 N   0  0  0  0  0  0  0  0  0  0  0  0
   -1.9719    2.7432    0.0000 R   0  0  0  0  0  1  0  0  0  0  0  0
   -2.3650    0.1750    0.0000 C   0  0  0  0  0  0  0  0  0  0  0  0
   -3.7626   -0.3698    0.0000 C   0  0  0  0  0  0  0  0  0  0  0  0
   -0.9675    0.7198    0.0000 C   0  0  0  0  0  0  0  0  0  0  0  0
    0.2031   -0.2181    0.0000 C   0  0  0  0  0  0  0  0  0  0  0  0
   -0.0238   -1.7008    0.0000 C   0  0  0  0  0  0  0  0  0  0  0  0
    1.1468   -2.6387    0.0000 C   0  0  0  0  0  0  0  0  0  0  0  0
    2.5443   -2.0939    0.0000 C   0  0  0  0  0  0  0  0  0  0  0  0
    2.7713   -0.6112    0.0000 C   0  0  0  0  0  0  0  0  0  0  0  0
    4.1689   -0.0664    0.0000 C   0  0  0  0  0  0  0  0  0  0  0  0
    4.3958    1.4163    0.0000 C   0  0  0  0  0  0  0  0  0  0  0  0
    3.2252    2.3543    0.0000 C   0  0  0  0  0  0  0  0  0  0  0  0
    1.8277    1.8095    0.0000 C   0  0  0  0  0  0  0  0  0  0  0  0
    1.6007    0.3267    0.0000 C   0  0  0  0  0  0  0  0  0  0  0  0
   -1.8202   -1.2225    0.0000 C   0  0  0  0  0  0  0  0  0  0  0  0
   -2.7581   -2.3931    0.0000 R   0  0  0  0  0  1  0  0  0  0  0  0
   -0.9123   -1.6024    0.0000 O   0  0  0  0  0  0  0  0  0  0  0  0
  1  2  1  0
  2  3  1  0
  2  4  1  0
  4  5  1  6
  4  6  1  0
  6  7  1  0
  7  8  2  0
  8  9  1  0
  9 10  2  0
 10 11  1  0
 11 12  2  0
 12 13  1  0
 13 14  2  0
 14 15  1  0
 15 16  2  0
  4 17  1  0
 17 18  1  0
 17 19  2  0
 16  7  1  0
 16 11  1  0
M  ISO  3   1   1   3   3  18   2
M  END
>  <symbol>  (825) 
aMe1Nal

>  <m_abbr>  (825) 
aMe1Nal

>  <m_name>  (825) 
L-alpha-methyl-1-naphthylalanine

>  <m_type>  (825) 
aa

>  <m_subtype>  (825) 
modified

>  <m_Rgroups>  (825) 
[H],[OH],[H]

>  <m_chem_types>  (825) 
1:backbone_n,2:backbone_c,3:backbone_n_mod

>  <m_activation_policy>  (825) 
canonical-sites-v1

$$$$

     RDKit          2D

 19 20  0  0  0  0  0  0  0  0999 V2000
   -4.3926    1.7995    0.0000 R   0  0  0  0  0  1  0  0  0  0  0  0
   -2.9098    1.5726    0.0000 N   0  0  0  0  0  0  0  0  0  0  0  0
   -1.9719    2.7432    0.0000 R   0  0  0  0  0  1  0  0  0  0  0  0
   -2.3650    0.1750    0.0000 C   0  0  0  0  0  0  0  0  0  0  0  0
   -3.7626   -0.3698    0.0000 C   0  0  0  0  0  0  0  0  0  0  0  0
   -0.9675    0.7198    0.0000 C   0  0  0  0  0  0  0  0  0  0  0  0
    0.2031   -0.2181    0.0000 C   0  0  0  0  0  0  0  0  0  0  0  0
   -0.0238   -1.7008    0.0000 C   0  0  0  0  0  0  0  0  0  0  0  0
    1.1468   -2.6387    0.0000 C   0  0  0  0  0  0  0  0  0  0  0  0
    2.5443   -2.0939    0.0000 C   0  0  0  0  0  0  0  0  0  0  0  0
    2.7713   -0.6112    0.0000 C   0  0  0  0  0  0  0  0  0  0  0  0
    4.1689   -0.0664    0.0000 C   0  0  0  0  0  0  0  0  0  0  0  0
    4.3958    1.4163    0.0000 C   0  0  0  0  0  0  0  0  0  0  0  0
    3.2252    2.3543    0.0000 C   0  0  0  0  0  0  0  0  0  0  0  0
    1.8277    1.8095    0.0000 C   0  0  0  0  0  0  0  0  0  0  0  0
    1.6007    0.3267    0.0000 C   0  0  0  0  0  0  0  0  0  0  0  0
   -1.8202   -1.2225    0.0000 C   0  0  0  0  0  0  0  0  0  0  0  0
   -2.7581   -2.3931    0.0000 R   0  0  0  0  0  1  0  0  0  0  0  0
   -0.9123   -1.6024    0.0000 O   0  0  0  0  0  0  0  0  0  0  0  0
  1  2  1  0
  2  3  1  0
  2  4  1  0
  4  5  1  1
  4  6  1  0
  6  7  1  0
  7  8  2  0
  8  9  1  0
  9 10  2  0
 10 11  1  0
 11 12  2  0
 12 13  1  0
 13 14  2  0
 14 15  1  0
 15 16  2  0
  4 17  1  0
 17 18  1  0
 17 19  2  0
 16  7  1  0
 16 11  1  0
M  ISO  3   1   1   3   3  18   2
M  END
>  <symbol>  (826) 
D_aMe1Nal

>  <m_abbr>  (826) 
D_aMe1Nal

>  <m_name>  (826) 
D-alpha-methyl-1-naphthylalanine

>  <m_type>  (826) 
aa

>  <m_subtype>  (826) 
modified

>  <m_Rgroups>  (826) 
[H],[OH],[H]

>  <m_chem_types>  (826) 
1:backbone_n,2:backbone_c,3:backbone_n_mod

>  <m_activation_policy>  (826) 
canonical-sites-v1

$$$$

     RDKit          2D

 19 20  0  0  0  0  0  0  0  0999 V2000
   -5.1667    0.8834    0.0000 R   0  0  0  0  0  1  0  0  0  0  0  0
   -3.6863    1.1257    0.0000 N   0  0  0  0  0  0  0  0  0  0  0  0
   -3.1560    2.5288    0.0000 R   0  0  0  0  0  1  0  0  0  0  0  0
   -2.7364   -0.0352    0.0000 C   0  0  0  0  0  0  0  0  0  0  0  0
   -3.8972   -0.9851    0.0000 C   0  0  0  0  0  0  0  0  0  0  0  0
   -1.5755    0.9148    0.0000 C   0  0  0  0  0  0  0  0  0  0  0  0
   -0.1724    0.3845    0.0000 C   0  0  0  0  0  0  0  0  0  0  0  0
    0.0699   -1.0958    0.0000 C   0  0  0  0  0  0  0  0  0  0  0  0
    1.4730   -1.6262    0.0000 C   0  0  0  0  0  0  0  0  0  0  0  0
    2.6338   -0.6762    0.0000 C   0  0  0  0  0  0  0  0  0  0  0  0
    4.0369   -1.2065    0.0000 C   0  0  0  0  0  0  0  0  0  0  0  0
    5.1978   -0.2566    0.0000 C   0  0  0  0  0  0  0  0  0  0  0  0
    4.9555    1.2237    0.0000 C   0  0  0  0  0  0  0  0  0  0  0  0
    3.5524    1.7541    0.0000 C   0  0  0  0  0  0  0  0  0  0  0  0
    2.3915    0.8041    0.0000 C   0  0  0  0  0  0  0  0  0  0  0  0
    0.9884    1.3344    0.0000 C   0  0  0  0  0  0  0  0  0  0  0  0
   -1.7864   -1.1960    0.0000 C   0  0  0  0  0  0  0  0  0  0  0  0
   -0.8056   -1.2768    0.0000 R   0  0  0  0  0  1  0  0  0  0  0  0
   -2.3167   -2.5991    0.0000 O   0  0  0  0  0  0  0  0  0  0  0  0
  1  2  1  0
  2  3  1  0
  2  4  1  0
  4  5  1  6
  4  6  1  0
  6  7  1  0
  7  8  1  0
  8  9  2  0
  9 10  1  0
 10 11  2  0
 11 12  1  0
 12 13  2  0
 13 14  1  0
 14 15  2  0
 15 16  1  0
  4 17  1  0
 17 18  1  0
 17 19  2  0
 16  7  2  0
 15 10  1  0
M  ISO  3   1   1   3   3  18   2
M  END
>  <symbol>  (827) 
aMe2Nal

>  <m_abbr>  (827) 
aMe2Nal

>  <m_name>  (827) 
L-alpha-methyl-2-naphthylalanine

>  <m_type>  (827) 
aa

>  <m_subtype>  (827) 
modified

>  <m_Rgroups>  (827) 
[H],[OH],[H]

>  <m_chem_types>  (827) 
1:backbone_n,2:backbone_c,3:backbone_n_mod

>  <m_activation_policy>  (827) 
canonical-sites-v1

$$$$

     RDKit          2D

 19 20  0  0  0  0  0  0  0  0999 V2000
   -5.1667    0.8834    0.0000 R   0  0  0  0  0  1  0  0  0  0  0  0
   -3.6863    1.1257    0.0000 N   0  0  0  0  0  0  0  0  0  0  0  0
   -3.1560    2.5288    0.0000 R   0  0  0  0  0  1  0  0  0  0  0  0
   -2.7364   -0.0352    0.0000 C   0  0  0  0  0  0  0  0  0  0  0  0
   -3.8972   -0.9851    0.0000 C   0  0  0  0  0  0  0  0  0  0  0  0
   -1.5755    0.9148    0.0000 C   0  0  0  0  0  0  0  0  0  0  0  0
   -0.1724    0.3845    0.0000 C   0  0  0  0  0  0  0  0  0  0  0  0
    0.0699   -1.0958    0.0000 C   0  0  0  0  0  0  0  0  0  0  0  0
    1.4730   -1.6262    0.0000 C   0  0  0  0  0  0  0  0  0  0  0  0
    2.6338   -0.6762    0.0000 C   0  0  0  0  0  0  0  0  0  0  0  0
    4.0369   -1.2065    0.0000 C   0  0  0  0  0  0  0  0  0  0  0  0
    5.1978   -0.2566    0.0000 C   0  0  0  0  0  0  0  0  0  0  0  0
    4.9555    1.2237    0.0000 C   0  0  0  0  0  0  0  0  0  0  0  0
    3.5524    1.7541    0.0000 C   0  0  0  0  0  0  0  0  0  0  0  0
    2.3915    0.8041    0.0000 C   0  0  0  0  0  0  0  0  0  0  0  0
    0.9884    1.3344    0.0000 C   0  0  0  0  0  0  0  0  0  0  0  0
   -1.7864   -1.1960    0.0000 C   0  0  0  0  0  0  0  0  0  0  0  0
   -0.8056   -1.2768    0.0000 R   0  0  0  0  0  1  0  0  0  0  0  0
   -2.3167   -2.5991    0.0000 O   0  0  0  0  0  0  0  0  0  0  0  0
  1  2  1  0
  2  3  1  0
  2  4  1  0
  4  5  1  1
  4  6  1  0
  6  7  1  0
  7  8  1  0
  8  9  2  0
  9 10  1  0
 10 11  2  0
 11 12  1  0
 12 13  2  0
 13 14  1  0
 14 15  2  0
 15 16  1  0
  4 17  1  0
 17 18  1  0
 17 19  2  0
 16  7  2  0
 15 10  1  0
M  ISO  3   1   1   3   3  18   2
M  END
>  <symbol>  (828) 
D_aMe2Nal

>  <m_abbr>  (828) 
D_aMe2Nal

>  <m_name>  (828) 
D-alpha-methyl-2-naphthylalanine

>  <m_type>  (828) 
aa

>  <m_subtype>  (828) 
modified

>  <m_Rgroups>  (828) 
[H],[OH],[H]

>  <m_chem_types>  (828) 
1:backbone_n,2:backbone_c,3:backbone_n_mod

>  <m_activation_policy>  (828) 
canonical-sites-v1

$$$$

     RDKit          2D

 15 15  0  0  0  0  0  0  0  0999 V2000
    0.5437   -1.1087    0.0000 R   0  0  0  0  0  1  0  0  0  0  0  0
   -0.4385   -1.1709    0.0000 N   0  0  0  0  0  0  0  0  0  0  0  0
   -0.7599   -2.6361    0.0000 R   0  0  0  0  0  1  0  0  0  0  0  0
   -1.5467   -0.1600    0.0000 C   0  0  0  0  0  0  0  0  0  0  0  0
   -2.5576   -1.2682    0.0000 C   0  0  0  0  0  0  0  0  0  0  0  0
   -0.5357    0.9482    0.0000 C   0  0  0  0  0  0  0  0  0  0  0  0
    0.9294    0.6267    0.0000 C   0  0  0  0  0  0  0  0  0  0  0  0
    1.3836   -0.8028    0.0000 C   0  0  0  0  0  0  0  0  0  0  0  0
    2.8488   -1.1242    0.0000 C   0  0  0  0  0  0  0  0  0  0  0  0
    3.8597   -0.0161    0.0000 C   0  0  0  0  0  0  0  0  0  0  0  0
    3.4055    1.4135    0.0000 C   0  0  0  0  0  0  0  0  0  0  0  0
    1.9403    1.7349    0.0000 C   0  0  0  0  0  0  0  0  0  0  0  0
   -2.6548    0.8509    0.0000 C   0  0  0  0  0  0  0  0  0  0  0  0
   -2.3334    2.3161    0.0000 R   0  0  0  0  0  1  0  0  0  0  0  0
   -4.0844    0.3967    0.0000 O   0  0  0  0  0  0  0  0  0  0  0  0
  1  2  1  0
  2  3  1  0
  2  4  1  0
  4  5  1  1
  4  6  1  0
  6  7  1  0
  7  8  1  0
  8  9  1  0
  9 10  1  0
 10 11  1  0
 11 12  1  0
  4 13  1  0
 13 14  1  0
 13 15  2  0
 12  7  1  0
M  ISO  3   1   1   3   3  14   2
M  END
>  <symbol>  (829) 
aMeCha

>  <m_abbr>  (829) 
aMeCha

>  <m_name>  (829) 
L-alpha-methylcyclohexylalanine

>  <m_type>  (829) 
aa

>  <m_subtype>  (829) 
modified

>  <m_Rgroups>  (829) 
[H],[OH],[H]

>  <m_chem_types>  (829) 
1:backbone_n,2:backbone_c,3:backbone_n_mod

>  <m_activation_policy>  (829) 
canonical-sites-v1

$$$$

     RDKit          2D

 15 15  0  0  0  0  0  0  0  0999 V2000
    0.5437   -1.1087    0.0000 R   0  0  0  0  0  1  0  0  0  0  0  0
   -0.4385   -1.1709    0.0000 N   0  0  0  0  0  0  0  0  0  0  0  0
   -0.7599   -2.6361    0.0000 R   0  0  0  0  0  1  0  0  0  0  0  0
   -1.5467   -0.1600    0.0000 C   0  0  0  0  0  0  0  0  0  0  0  0
   -2.5576   -1.2682    0.0000 C   0  0  0  0  0  0  0  0  0  0  0  0
   -0.5357    0.9482    0.0000 C   0  0  0  0  0  0  0  0  0  0  0  0
    0.9294    0.6267    0.0000 C   0  0  0  0  0  0  0  0  0  0  0  0
    1.3836   -0.8028    0.0000 C   0  0  0  0  0  0  0  0  0  0  0  0
    2.8488   -1.1242    0.0000 C   0  0  0  0  0  0  0  0  0  0  0  0
    3.8597   -0.0161    0.0000 C   0  0  0  0  0  0  0  0  0  0  0  0
    3.4055    1.4135    0.0000 C   0  0  0  0  0  0  0  0  0  0  0  0
    1.9403    1.7349    0.0000 C   0  0  0  0  0  0  0  0  0  0  0  0
   -2.6548    0.8509    0.0000 C   0  0  0  0  0  0  0  0  0  0  0  0
   -2.3334    2.3161    0.0000 R   0  0  0  0  0  1  0  0  0  0  0  0
   -4.0844    0.3967    0.0000 O   0  0  0  0  0  0  0  0  0  0  0  0
  1  2  1  0
  2  3  1  0
  2  4  1  0
  4  5  1  6
  4  6  1  0
  6  7  1  0
  7  8  1  0
  8  9  1  0
  9 10  1  0
 10 11  1  0
 11 12  1  0
  4 13  1  0
 13 14  1  0
 13 15  2  0
 12  7  1  0
M  ISO  3   1   1   3   3  14   2
M  END
>  <symbol>  (830) 
D_aMeCha

>  <m_abbr>  (830) 
D_aMeCha

>  <m_name>  (830) 
D-alpha-methylcyclohexylalanine

>  <m_type>  (830) 
aa

>  <m_subtype>  (830) 
modified

>  <m_Rgroups>  (830) 
[H],[OH],[H]

>  <m_chem_types>  (830) 
1:backbone_n,2:backbone_c,3:backbone_n_mod

>  <m_activation_policy>  (830) 
canonical-sites-v1

$$$$

     RDKit          2D

 14 14  0  0  0  0  0  0  0  0999 V2000
    2.4776   -2.2500    0.0000 R   0  0  0  0  0  1  0  0  0  0  0  0
    1.1786   -1.5000    0.0000 N   0  0  0  0  0  0  0  0  0  0  0  0
   -0.1205   -2.2500    0.0000 R   0  0  0  0  0  1  0  0  0  0  0  0
    1.1786    0.0000    0.0000 C   0  0  0  0  0  0  0  0  0  0  0  0
    2.6786   -0.0000    0.0000 C   0  0  0  0  0  0  0  0  0  0  0  0
    1.1786    1.5000    0.0000 C   0  0  0  0  0  0  0  0  0  0  0  0
    2.4776    2.2500    0.0000 R   0  0  0  0  0  1  0  0  0  0  0  0
   -0.1205    2.2500    0.0000 O   0  0  0  0  0  0  0  0  0  0  0  0
   -0.3214   -0.0000    0.0000 C   0  0  0  0  0  0  0  0  0  0  0  0
   -1.0714   -1.2990    0.0000 C   0  0  0  0  0  0  0  0  0  0  0  0
   -2.5714   -1.2990    0.0000 C   0  0  0  0  0  0  0  0  0  0  0  0
   -3.3214    0.0000    0.0000 C   0  0  0  0  0  0  0  0  0  0  0  0
   -2.5714    1.2990    0.0000 C   0  0  0  0  0  0  0  0  0  0  0  0
   -1.0714    1.2990    0.0000 C   0  0  0  0  0  0  0  0  0  0  0  0
  1  2  1  0
  2  3  1  0
  2  4  1  0
  4  5  1  6
  4  6  1  0
  6  7  1  0
  6  8  2  0
  4  9  1  0
  9 10  1  0
 10 11  1  0
 11 12  1  0
 12 13  1  0
 13 14  1  0
 14  9  1  0
M  ISO  3   1   1   3   3   7   2
M  END
>  <symbol>  (831) 
aMeChg

>  <m_abbr>  (831) 
aMeChg

>  <m_name>  (831) 
L-alpha-methylcyclohexylglycine

>  <m_type>  (831) 
aa

>  <m_subtype>  (831) 
modified

>  <m_Rgroups>  (831) 
[H],[OH],[H]

>  <m_chem_types>  (831) 
1:backbone_n,2:backbone_c,3:backbone_n_mod

>  <m_activation_policy>  (831) 
canonical-sites-v1

$$$$

     RDKit          2D

 14 14  0  0  0  0  0  0  0  0999 V2000
    2.4776   -2.2500    0.0000 R   0  0  0  0  0  1  0  0  0  0  0  0
    1.1786   -1.5000    0.0000 N   0  0  0  0  0  0  0  0  0  0  0  0
   -0.1205   -2.2500    0.0000 R   0  0  0  0  0  1  0  0  0  0  0  0
    1.1786    0.0000    0.0000 C   0  0  0  0  0  0  0  0  0  0  0  0
    2.6786   -0.0000    0.0000 C   0  0  0  0  0  0  0  0  0  0  0  0
    1.1786    1.5000    0.0000 C   0  0  0  0  0  0  0  0  0  0  0  0
    2.4776    2.2500    0.0000 R   0  0  0  0  0  1  0  0  0  0  0  0
   -0.1205    2.2500    0.0000 O   0  0  0  0  0  0  0  0  0  0  0  0
   -0.3214   -0.0000    0.0000 C   0  0  0  0  0  0  0  0  0  0  0  0
   -1.0714   -1.2990    0.0000 C   0  0  0  0  0  0  0  0  0  0  0  0
   -2.5714   -1.2990    0.0000 C   0  0  0  0  0  0  0  0  0  0  0  0
   -3.3214    0.0000    0.0000 C   0  0  0  0  0  0  0  0  0  0  0  0
   -2.5714    1.2990    0.0000 C   0  0  0  0  0  0  0  0  0  0  0  0
   -1.0714    1.2990    0.0000 C   0  0  0  0  0  0  0  0  0  0  0  0
  1  2  1  0
  2  3  1  0
  2  4  1  0
  4  5  1  1
  4  6  1  0
  6  7  1  0
  6  8  2  0
  4  9  1  0
  9 10  1  0
 10 11  1  0
 11 12  1  0
 12 13  1  0
 13 14  1  0
 14  9  1  0
M  ISO  3   1   1   3   3   7   2
M  END
>  <symbol>  (832) 
D_aMeChg

>  <m_abbr>  (832) 
D_aMeChg

>  <m_name>  (832) 
D-alpha-methylcyclohexylglycine

>  <m_type>  (832) 
aa

>  <m_subtype>  (832) 
modified

>  <m_Rgroups>  (832) 
[H],[OH],[H]

>  <m_chem_types>  (832) 
1:backbone_n,2:backbone_c,3:backbone_n_mod

>  <m_activation_policy>  (832) 
canonical-sites-v1

$$$$

     RDKit          2D

 21 22  0  0  0  0  0  0  0  0999 V2000
   -6.0514   -0.1265    0.0000 R   0  0  0  0  0  1  0  0  0  0  0  0
   -4.6604   -0.6878    0.0000 N   0  0  0  0  0  0  0  0  0  0  0  0
   -4.4510   -2.1731    0.0000 R   0  0  0  0  0  1  0  0  0  0  0  0
   -3.4788    0.2362    0.0000 C   0  0  0  0  0  0  0  0  0  0  0  0
   -4.4028    1.4178    0.0000 C   0  0  0  0  0  0  0  0  0  0  0  0
   -2.5548   -0.9454    0.0000 C   0  0  0  0  0  0  0  0  0  0  0  0
   -1.0695   -0.7360    0.0000 C   0  0  0  0  0  0  0  0  0  0  0  0
   -0.5082    0.6550    0.0000 C   0  0  0  0  0  0  0  0  0  0  0  0
    0.9771    0.8644    0.0000 C   0  0  0  0  0  0  0  0  0  0  0  0
    1.9011   -0.3172    0.0000 C   0  0  0  0  0  0  0  0  0  0  0  0
    3.3865   -0.1078    0.0000 C   0  0  0  0  0  0  0  0  0  0  0  0
    4.3105   -1.2895    0.0000 C   0  0  0  0  0  0  0  0  0  0  0  0
    5.7958   -1.0801    0.0000 C   0  0  0  0  0  0  0  0  0  0  0  0
    6.3571    0.3110    0.0000 C   0  0  0  0  0  0  0  0  0  0  0  0
    5.4331    1.4926    0.0000 C   0  0  0  0  0  0  0  0  0  0  0  0
    3.9478    1.2832    0.0000 C   0  0  0  0  0  0  0  0  0  0  0  0
    1.3398   -1.7083    0.0000 C   0  0  0  0  0  0  0  0  0  0  0  0
   -0.1455   -1.9177    0.0000 C   0  0  0  0  0  0  0  0  0  0  0  0
   -2.2972    1.1602    0.0000 C   0  0  0  0  0  0  0  0  0  0  0  0
   -2.5066    2.6455    0.0000 R   0  0  0  0  0  1  0  0  0  0  0  0
   -1.3225    1.0237    0.0000 O   0  0  0  0  0  0  0  0  0  0  0  0
  1  2  1  0
  2  3  1  0
  2  4  1  0
  4  5  1  1
  4  6  1  0
  6  7  1  0
  7  8  1  0
  8  9  2  0
  9 10  1  0
 10 11  1  0
 11 12  2  0
 12 13  1  0
 13 14  2  0
 14 15  1  0
 15 16  2  0
 10 17  2  0
 17 18  1  0
  4 19  1  0
 19 20  1  0
 19 21  2  0
 18  7  2  0
 16 11  1  0
M  ISO  3   1   1   3   3  20   2
M  END
>  <symbol>  (833) 
aMeBip

>  <m_abbr>  (833) 
aMeBip

>  <m_name>  (833) 
L-alpha-methyl-4-biphenylalanine

>  <m_type>  (833) 
aa

>  <m_subtype>  (833) 
modified

>  <m_Rgroups>  (833) 
[H],[OH],[H]

>  <m_chem_types>  (833) 
1:backbone_n,2:backbone_c,3:backbone_n_mod

>  <m_activation_policy>  (833) 
canonical-sites-v1

$$$$

     RDKit          2D

 21 22  0  0  0  0  0  0  0  0999 V2000
   -6.0514   -0.1265    0.0000 R   0  0  0  0  0  1  0  0  0  0  0  0
   -4.6604   -0.6878    0.0000 N   0  0  0  0  0  0  0  0  0  0  0  0
   -4.4510   -2.1731    0.0000 R   0  0  0  0  0  1  0  0  0  0  0  0
   -3.4788    0.2362    0.0000 C   0  0  0  0  0  0  0  0  0  0  0  0
   -4.4028    1.4178    0.0000 C   0  0  0  0  0  0  0  0  0  0  0  0
   -2.5548   -0.9454    0.0000 C   0  0  0  0  0  0  0  0  0  0  0  0
   -1.0695   -0.7360    0.0000 C   0  0  0  0  0  0  0  0  0  0  0  0
   -0.5082    0.6550    0.0000 C   0  0  0  0  0  0  0  0  0  0  0  0
    0.9771    0.8644    0.0000 C   0  0  0  0  0  0  0  0  0  0  0  0
    1.9011   -0.3172    0.0000 C   0  0  0  0  0  0  0  0  0  0  0  0
    3.3865   -0.1078    0.0000 C   0  0  0  0  0  0  0  0  0  0  0  0
    4.3105   -1.2895    0.0000 C   0  0  0  0  0  0  0  0  0  0  0  0
    5.7958   -1.0801    0.0000 C   0  0  0  0  0  0  0  0  0  0  0  0
    6.3571    0.3110    0.0000 C   0  0  0  0  0  0  0  0  0  0  0  0
    5.4331    1.4926    0.0000 C   0  0  0  0  0  0  0  0  0  0  0  0
    3.9478    1.2832    0.0000 C   0  0  0  0  0  0  0  0  0  0  0  0
    1.3398   -1.7083    0.0000 C   0  0  0  0  0  0  0  0  0  0  0  0
   -0.1455   -1.9177    0.0000 C   0  0  0  0  0  0  0  0  0  0  0  0
   -2.2972    1.1602    0.0000 C   0  0  0  0  0  0  0  0  0  0  0  0
   -2.5066    2.6455    0.0000 R   0  0  0  0  0  1  0  0  0  0  0  0
   -1.3225    1.0237    0.0000 O   0  0  0  0  0  0  0  0  0  0  0  0
  1  2  1  0
  2  3  1  0
  2  4  1  0
  4  5  1  6
  4  6  1  0
  6  7  1  0
  7  8  1  0
  8  9  2  0
  9 10  1  0
 10 11  1  0
 11 12  2  0
 12 13  1  0
 13 14  2  0
 14 15  1  0
 15 16  2  0
 10 17  2  0
 17 18  1  0
  4 19  1  0
 19 20  1  0
 19 21  2  0
 18  7  2  0
 16 11  1  0
M  ISO  3   1   1   3   3  20   2
M  END
>  <symbol>  (834) 
D_aMeBip

>  <m_abbr>  (834) 
D_aMeBip

>  <m_name>  (834) 
D-alpha-methyl-4-biphenylalanine

>  <m_type>  (834) 
aa

>  <m_subtype>  (834) 
modified

>  <m_Rgroups>  (834) 
[H],[OH],[H]

>  <m_chem_types>  (834) 
1:backbone_n,2:backbone_c,3:backbone_n_mod

>  <m_activation_policy>  (834) 
canonical-sites-v1

$$$$

     RDKit          2D

 20 21  0  0  0  0  0  0  0  0999 V2000
   -4.8923    1.6576    0.0000 R   0  0  0  0  0  1  0  0  0  0  0  0
   -3.3966    1.5443    0.0000 N   0  0  0  0  0  0  0  0  0  0  0  0
   -2.5506    2.7830    0.0000 R   0  0  0  0  0  1  0  0  0  0  0  0
   -2.7468    0.1923    0.0000 C   0  0  0  0  0  0  0  0  0  0  0  0
   -4.0988   -0.4574    0.0000 C   0  0  0  0  0  0  0  0  0  0  0  0
   -1.3948    0.8421    0.0000 C   0  0  0  0  0  0  0  0  0  0  0  0
   -0.1562   -0.0039    0.0000 C   0  0  0  0  0  0  0  0  0  0  0  0
   -0.1125   -1.5033    0.0000 C   0  0  0  0  0  0  0  0  0  0  0  0
    1.3270   -1.9251    0.0000 N   0  0  0  0  0  0  0  0  0  0  0  0
    1.8318   -3.3376    0.0000 R   0  0  0  0  0  1  0  0  0  0  0  0
    2.1730   -0.6864    0.0000 C   0  0  0  0  0  0  0  0  0  0  0  0
    3.6595   -0.4863    0.0000 C   0  0  0  0  0  0  0  0  0  0  0  0
    4.2295    0.9012    0.0000 C   0  0  0  0  0  0  0  0  0  0  0  0
    5.7161    1.1014    0.0000 F   0  0  0  0  0  0  0  0  0  0  0  0
    3.3129    2.0886    0.0000 C   0  0  0  0  0  0  0  0  0  0  0  0
    1.8263    1.8884    0.0000 C   0  0  0  0  0  0  0  0  0  0  0  0
    1.2563    0.5009    0.0000 C   0  0  0  0  0  0  0  0  0  0  0  0
   -2.0971   -1.1597    0.0000 C   0  0  0  0  0  0  0  0  0  0  0  0
   -0.9438   -1.5419    0.0000 R   0  0  0  0  0  1  0  0  0  0  0  0
   -2.9431   -2.3983    0.0000 O   0  0  0  0  0  0  0  0  0  0  0  0
  1  2  1  0
  2  3  1  0
  2  4  1  0
  4  5  1  0
  4  6  1  0
  6  7  1  0
  7  8  2  0
  8  9  1  0
  9 10  1  0
  9 11  1  0
 11 12  1  0
 12 13  2  0
 13 14  1  0
 13 15  1  0
 15 16  2  0
 16 17  1  0
  4 18  1  0
 18 19  1  0
 18 20  2  0
 17  7  1  0
 17 11  2  0
M  ISO  4   1   1   3   3  10   4  19   2
M  END
>  <symbol>  (835) 
aMeTrp_5F

>  <m_abbr>  (835) 
aMeTrp_5F

>  <m_name>  (835) 
L-alpha-methyl-5-fluorotryptophan

>  <m_type>  (835) 
aa

>  <m_subtype>  (835) 
modified

>  <m_Rgroups>  (835) 
[H],[OH],[H],[H]

>  <m_chem_types>  (835) 
1:backbone_n,2:backbone_c,3:backbone_n_mod,4:aromatic_nh

>  <m_activation_policy>  (835) 
canonical-sites-v1

$$$$

     RDKit          2D

 20 21  0  0  0  0  0  0  0  0999 V2000
   -4.8923    1.6576    0.0000 R   0  0  0  0  0  1  0  0  0  0  0  0
   -3.3966    1.5443    0.0000 N   0  0  0  0  0  0  0  0  0  0  0  0
   -2.5506    2.7830    0.0000 R   0  0  0  0  0  1  0  0  0  0  0  0
   -2.7468    0.1923    0.0000 C   0  0  0  0  0  0  0  0  0  0  0  0
   -4.0988   -0.4574    0.0000 C   0  0  0  0  0  0  0  0  0  0  0  0
   -1.3948    0.8421    0.0000 C   0  0  0  0  0  0  0  0  0  0  0  0
   -0.1562   -0.0039    0.0000 C   0  0  0  0  0  0  0  0  0  0  0  0
   -0.1125   -1.5033    0.0000 C   0  0  0  0  0  0  0  0  0  0  0  0
    1.3270   -1.9251    0.0000 N   0  0  0  0  0  0  0  0  0  0  0  0
    1.8318   -3.3376    0.0000 R   0  0  0  0  0  1  0  0  0  0  0  0
    2.1730   -0.6864    0.0000 C   0  0  0  0  0  0  0  0  0  0  0  0
    3.6595   -0.4863    0.0000 C   0  0  0  0  0  0  0  0  0  0  0  0
    4.2295    0.9012    0.0000 C   0  0  0  0  0  0  0  0  0  0  0  0
    5.7161    1.1014    0.0000 F   0  0  0  0  0  0  0  0  0  0  0  0
    3.3129    2.0886    0.0000 C   0  0  0  0  0  0  0  0  0  0  0  0
    1.8263    1.8884    0.0000 C   0  0  0  0  0  0  0  0  0  0  0  0
    1.2563    0.5009    0.0000 C   0  0  0  0  0  0  0  0  0  0  0  0
   -2.0971   -1.1597    0.0000 C   0  0  0  0  0  0  0  0  0  0  0  0
   -0.9438   -1.5419    0.0000 R   0  0  0  0  0  1  0  0  0  0  0  0
   -2.9431   -2.3983    0.0000 O   0  0  0  0  0  0  0  0  0  0  0  0
  1  2  1  0
  2  3  1  0
  2  4  1  0
  4  5  1  1
  4  6  1  0
  6  7  1  0
  7  8  2  0
  8  9  1  0
  9 10  1  0
  9 11  1  0
 11 12  1  0
 12 13  2  0
 13 14  1  0
 13 15  1  0
 15 16  2  0
 16 17  1  0
  4 18  1  0
 18 19  1  0
 18 20  2  0
 17  7  1  0
 17 11  2  0
M  ISO  4   1   1   3   3  10   4  19   2
M  END
>  <symbol>  (836) 
D_aMeTrp_5F

>  <m_abbr>  (836) 
D_aMeTrp_5F

>  <m_name>  (836) 
D-alpha-methyl-5-fluorotryptophan

>  <m_type>  (836) 
aa

>  <m_subtype>  (836) 
modified

>  <m_Rgroups>  (836) 
[H],[OH],[H],[H]

>  <m_chem_types>  (836) 
1:backbone_n,2:backbone_c,3:backbone_n_mod,4:aromatic_nh

>  <m_activation_policy>  (836) 
canonical-sites-v1

$$$$

     RDKit          2D

 19 20  0  0  0  0  0  0  0  0999 V2000
   -4.7073    1.3659    0.0000 R   0  0  0  0  0  1  0  0  0  0  0  0
   -3.2073    1.3652    0.0000 N   0  0  0  0  0  0  0  0  0  0  0  0
   -2.4567    2.6640    0.0000 R   0  0  0  0  0  1  0  0  0  0  0  0
   -2.4579    0.0659    0.0000 C   0  0  0  0  0  0  0  0  0  0  0  0
   -3.7572   -0.6836    0.0000 C   0  0  0  0  0  0  0  0  0  0  0  0
   -1.1585    0.8153    0.0000 C   0  0  0  0  0  0  0  0  0  0  0  0
    0.1402    0.0648    0.0000 C   0  0  0  0  0  0  0  0  0  0  0  0
    0.2964   -1.4271    0.0000 C   0  0  0  0  0  0  0  0  0  0  0  0
    1.7635   -1.7396    0.0000 N   0  0  0  0  0  0  0  0  0  0  0  0
    2.3730   -3.1102    0.0000 R   0  0  0  0  0  1  0  0  0  0  0  0
    2.5140   -0.4409    0.0000 C   0  0  0  0  0  0  0  0  0  0  0  0
    3.9814   -0.1296    0.0000 N   0  0  0  0  0  0  0  0  0  0  0  0
    4.4455    1.2967    0.0000 C   0  0  0  0  0  0  0  0  0  0  0  0
    3.4423    2.4119    0.0000 C   0  0  0  0  0  0  0  0  0  0  0  0
    1.9749    2.1007    0.0000 C   0  0  0  0  0  0  0  0  0  0  0  0
    1.5108    0.6743    0.0000 C   0  0  0  0  0  0  0  0  0  0  0  0
   -1.7084   -1.2335    0.0000 C   0  0  0  0  0  0  0  0  0  0  0  0
   -0.5297   -1.5280    0.0000 R   0  0  0  0  0  1  0  0  0  0  0  0
   -2.4590   -2.5322    0.0000 O   0  0  0  0  0  0  0  0  0  0  0  0
  1  2  1  0
  2  3  1  0
  2  4  1  0
  4  5  1  0
  4  6  1  0
  6  7  1  0
  7  8  2  0
  8  9  1  0
  9 10  1  0
  9 11  1  0
 11 12  2  0
 12 13  1  0
 13 14  2  0
 14 15  1  0
 15 16  2  0
  4 17  1  0
 17 18  1  0
 17 19  2  0
 16  7  1  0
 16 11  1  0
M  ISO  4   1   1   3   3  10   4  18   2
M  END
>  <symbol>  (837) 
aMeTrp_7Aza

>  <m_abbr>  (837) 
aMeTrp_7Aza

>  <m_name>  (837) 
L-alpha-methyl-7-azatryptophan

>  <m_type>  (837) 
aa

>  <m_subtype>  (837) 
modified

>  <m_Rgroups>  (837) 
[H],[OH],[H],[H]

>  <m_chem_types>  (837) 
1:backbone_n,2:backbone_c,3:backbone_n_mod,4:aromatic_nh

>  <m_activation_policy>  (837) 
canonical-sites-v1

$$$$

     RDKit          2D

 19 20  0  0  0  0  0  0  0  0999 V2000
   -4.7073    1.3659    0.0000 R   0  0  0  0  0  1  0  0  0  0  0  0
   -3.2073    1.3652    0.0000 N   0  0  0  0  0  0  0  0  0  0  0  0
   -2.4567    2.6640    0.0000 R   0  0  0  0  0  1  0  0  0  0  0  0
   -2.4579    0.0659    0.0000 C   0  0  0  0  0  0  0  0  0  0  0  0
   -3.7572   -0.6836    0.0000 C   0  0  0  0  0  0  0  0  0  0  0  0
   -1.1585    0.8153    0.0000 C   0  0  0  0  0  0  0  0  0  0  0  0
    0.1402    0.0648    0.0000 C   0  0  0  0  0  0  0  0  0  0  0  0
    0.2964   -1.4271    0.0000 C   0  0  0  0  0  0  0  0  0  0  0  0
    1.7635   -1.7396    0.0000 N   0  0  0  0  0  0  0  0  0  0  0  0
    2.3730   -3.1102    0.0000 R   0  0  0  0  0  1  0  0  0  0  0  0
    2.5140   -0.4409    0.0000 C   0  0  0  0  0  0  0  0  0  0  0  0
    3.9814   -0.1296    0.0000 N   0  0  0  0  0  0  0  0  0  0  0  0
    4.4455    1.2967    0.0000 C   0  0  0  0  0  0  0  0  0  0  0  0
    3.4423    2.4119    0.0000 C   0  0  0  0  0  0  0  0  0  0  0  0
    1.9749    2.1007    0.0000 C   0  0  0  0  0  0  0  0  0  0  0  0
    1.5108    0.6743    0.0000 C   0  0  0  0  0  0  0  0  0  0  0  0
   -1.7084   -1.2335    0.0000 C   0  0  0  0  0  0  0  0  0  0  0  0
   -0.5297   -1.5280    0.0000 R   0  0  0  0  0  1  0  0  0  0  0  0
   -2.4590   -2.5322    0.0000 O   0  0  0  0  0  0  0  0  0  0  0  0
  1  2  1  0
  2  3  1  0
  2  4  1  0
  4  5  1  1
  4  6  1  0
  6  7  1  0
  7  8  2  0
  8  9  1  0
  9 10  1  0
  9 11  1  0
 11 12  2  0
 12 13  1  0
 13 14  2  0
 14 15  1  0
 15 16  2  0
  4 17  1  0
 17 18  1  0
 17 19  2  0
 16  7  1  0
 16 11  1  0
M  ISO  4   1   1   3   3  10   4  18   2
M  END
>  <symbol>  (838) 
D_aMeTrp_7Aza

>  <m_abbr>  (838) 
D_aMeTrp_7Aza

>  <m_name>  (838) 
D-alpha-methyl-7-azatryptophan

>  <m_type>  (838) 
aa

>  <m_subtype>  (838) 
modified

>  <m_Rgroups>  (838) 
[H],[OH],[H],[H]

>  <m_chem_types>  (838) 
1:backbone_n,2:backbone_c,3:backbone_n_mod,4:aromatic_nh

>  <m_activation_policy>  (838) 
canonical-sites-v1

$$$$

     RDKit          2D

 15 15  0  0  0  0  0  0  0  0999 V2000
   -2.1298    1.7590    0.0000 R   0  0  0  0  0  1  0  0  0  0  0  0
   -0.8885    0.9168    0.0000 N   0  0  0  0  0  0  0  0  0  0  0  0
    0.4614    1.5707    0.0000 R   0  0  0  0  0  1  0  0  0  0  0  0
   -0.9972   -0.5793    0.0000 C   0  0  0  0  0  0  0  0  0  0  0  0
   -2.3472   -1.2332    0.0000 C   0  0  0  0  0  0  0  0  0  0  0  0
   -3.5885   -0.3910    0.0000 C   0  0  0  0  0  0  0  0  0  0  0  0
   -4.9384   -1.0449    0.0000 R   0  0  0  0  0  1  0  0  0  0  0  0
   -3.4798    1.1051    0.0000 O   0  0  0  0  0  0  0  0  0  0  0  0
    0.2441   -1.4214    0.0000 C   0  0  0  0  0  0  0  0  0  0  0  0
    1.5940   -0.7675    0.0000 C   0  0  0  0  0  0  0  0  0  0  0  0
    1.7027    0.7285    0.0000 C   0  0  0  0  0  0  0  0  0  0  0  0
    3.0527    1.3824    0.0000 C   0  0  0  0  0  0  0  0  0  0  0  0
    4.2940    0.5403    0.0000 C   0  0  0  0  0  0  0  0  0  0  0  0
    4.1853   -0.9558    0.0000 C   0  0  0  0  0  0  0  0  0  0  0  0
    2.8353   -1.6097    0.0000 C   0  0  0  0  0  0  0  0  0  0  0  0
  1  2  1  0
  2  3  1  0
  2  4  1  0
  4  5  1  1
  5  6  1  0
  6  7  1  0
  6  8  2  0
  4  9  1  0
  9 10  1  0
 10 11  2  0
 11 12  1  0
 12 13  2  0
 13 14  1  0
 14 15  2  0
 15 10  1  0
M  ISO  3   1   1   3   3   7   2
M  END
>  <symbol>  (839) 
b3hPhe

>  <m_abbr>  (839) 
b3hPhe

>  <m_name>  (839) 
L-beta3-homophenylalanine

>  <m_type>  (839) 
aa

>  <m_subtype>  (839) 
modified

>  <m_Rgroups>  (839) 
[H],[OH],[H]

>  <m_chem_types>  (839) 
1:backbone_n,2:backbone_c,3:backbone_n_mod

>  <m_activation_policy>  (839) 
canonical-sites-v1

$$$$

     RDKit          2D

 12 11  0  0  0  0  0  0  0  0999 V2000
   -2.9088    2.0252    0.0000 R   0  0  0  0  0  1  0  0  0  0  0  0
   -2.5730    0.5633    0.0000 N   0  0  0  0  0  0  0  0  0  0  0  0
   -3.6711   -0.4585    0.0000 R   0  0  0  0  0  1  0  0  0  0  0  0
   -1.1390    0.1231    0.0000 C   0  0  0  0  0  0  0  0  0  0  0  0
   -0.0408    1.1449    0.0000 C   0  0  0  0  0  0  0  0  0  0  0  0
    1.3931    0.7048    0.0000 C   0  0  0  0  0  0  0  0  0  0  0  0
    2.4913    1.7265    0.0000 S   0  0  0  0  0  0  0  0  0  0  0  0
    3.9253    1.2864    0.0000 C   0  0  0  0  0  0  0  0  0  0  0  0
   -0.8032   -1.3388    0.0000 C   0  0  0  0  0  0  0  0  0  0  0  0
    0.6308   -1.7789    0.0000 C   0  0  0  0  0  0  0  0  0  0  0  0
    0.9666   -3.2409    0.0000 R   0  0  0  0  0  1  0  0  0  0  0  0
    1.7289   -0.7572    0.0000 O   0  0  0  0  0  0  0  0  0  0  0  0
  1  2  1  0
  2  3  1  0
  2  4  1  0
  4  5  1  1
  5  6  1  0
  6  7  1  0
  7  8  1  0
  4  9  1  0
  9 10  1  0
 10 11  1  0
 10 12  2  0
M  ISO  3   1   1   3   3  11   2
M  END
>  <symbol>  (840) 
b3hMet

>  <m_abbr>  (840) 
b3hMet

>  <m_name>  (840) 
L-beta3-homomethionine

>  <m_type>  (840) 
aa

>  <m_subtype>  (840) 
modified

>  <m_Rgroups>  (840) 
[H],[OH],[H]

>  <m_chem_types>  (840) 
1:backbone_n,2:backbone_c,3:backbone_n_mod

>  <m_activation_policy>  (840) 
canonical-sites-v1

$$$$

     RDKit          2D

 11 10  0  0  0  0  0  0  0  0999 V2000
   -3.0682    1.2990    0.0000 R   0  0  0  0  0  1  0  0  0  0  0  0
   -2.3182    0.0000    0.0000 N   0  0  0  0  0  0  0  0  0  0  0  0
   -3.0682   -1.2990    0.0000 R   0  0  0  0  0  1  0  0  0  0  0  0
   -0.8182   -0.0000    0.0000 C   0  0  0  0  0  0  0  0  0  0  0  0
   -0.0682   -1.2990    0.0000 C   0  0  0  0  0  0  0  0  0  0  0  0
    1.4318   -1.2990    0.0000 C   0  0  0  0  0  0  0  0  0  0  0  0
    2.1818   -2.5981    0.0000 C   0  0  0  0  0  0  0  0  0  0  0  0
   -0.0682    1.2990    0.0000 C   0  0  0  0  0  0  0  0  0  0  0  0
    1.4318    1.2990    0.0000 C   0  0  0  0  0  0  0  0  0  0  0  0
    2.1818    2.5981    0.0000 R   0  0  0  0  0  1  0  0  0  0  0  0
    2.1818    0.0000    0.0000 O   0  0  0  0  0  0  0  0  0  0  0  0
  1  2  1  0
  2  3  1  0
  2  4  1  0
  4  5  1  6
  5  6  1  0
  6  7  1  0
  4  8  1  0
  8  9  1  0
  9 10  1  0
  9 11  2  0
M  ISO  3   1   1   3   3  10   2
M  END
>  <symbol>  (841) 
b3hNva

>  <m_abbr>  (841) 
b3hNva

>  <m_name>  (841) 
L-beta3-homonorvaline

>  <m_type>  (841) 
aa

>  <m_subtype>  (841) 
modified

>  <m_Rgroups>  (841) 
[H],[OH],[H]

>  <m_chem_types>  (841) 
1:backbone_n,2:backbone_c,3:backbone_n_mod

>  <m_activation_policy>  (841) 
canonical-sites-v1

$$$$

     RDKit          2D

 15 15  0  0  0  0  0  0  0  0999 V2000
   -2.1298    1.7590    0.0000 R   0  0  0  0  0  1  0  0  0  0  0  0
   -0.8885    0.9168    0.0000 N   0  0  0  0  0  0  0  0  0  0  0  0
    0.4614    1.5707    0.0000 R   0  0  0  0  0  1  0  0  0  0  0  0
   -0.9972   -0.5793    0.0000 C   0  0  0  0  0  0  0  0  0  0  0  0
   -2.3472   -1.2332    0.0000 C   0  0  0  0  0  0  0  0  0  0  0  0
   -3.5885   -0.3910    0.0000 C   0  0  0  0  0  0  0  0  0  0  0  0
   -4.9384   -1.0449    0.0000 R   0  0  0  0  0  1  0  0  0  0  0  0
   -3.4798    1.1051    0.0000 O   0  0  0  0  0  0  0  0  0  0  0  0
    0.2441   -1.4214    0.0000 C   0  0  0  0  0  0  0  0  0  0  0  0
    1.5940   -0.7675    0.0000 C   0  0  0  0  0  0  0  0  0  0  0  0
    1.7027    0.7285    0.0000 C   0  0  0  0  0  0  0  0  0  0  0  0
    3.0527    1.3824    0.0000 C   0  0  0  0  0  0  0  0  0  0  0  0
    4.2940    0.5403    0.0000 C   0  0  0  0  0  0  0  0  0  0  0  0
    4.1853   -0.9558    0.0000 C   0  0  0  0  0  0  0  0  0  0  0  0
    2.8353   -1.6097    0.0000 C   0  0  0  0  0  0  0  0  0  0  0  0
  1  2  1  0
  2  3  1  0
  2  4  1  0
  4  5  1  1
  5  6  1  0
  6  7  1  0
  6  8  2  0
  4  9  1  0
  9 10  1  0
 10 11  1  0
 11 12  1  0
 12 13  1  0
 13 14  1  0
 14 15  1  0
 15 10  1  0
M  ISO  3   1   1   3   3   7   2
M  END
>  <symbol>  (842) 
b3hCha

>  <m_abbr>  (842) 
b3hCha

>  <m_name>  (842) 
L-beta3-homocyclohexylalanine

>  <m_type>  (842) 
aa

>  <m_subtype>  (842) 
modified

>  <m_Rgroups>  (842) 
[H],[OH],[H]

>  <m_chem_types>  (842) 
1:backbone_n,2:backbone_c,3:backbone_n_mod

>  <m_activation_policy>  (842) 
canonical-sites-v1

$$$$

     RDKit          2D

 14 14  0  0  0  0  0  0  0  0999 V2000
   -2.4937   -1.6259    0.0000 R   0  0  0  0  0  1  0  0  0  0  0  0
   -1.0057   -1.4371    0.0000 N   0  0  0  0  0  0  0  0  0  0  0  0
   -0.0981   -2.6314    0.0000 R   0  0  0  0  0  1  0  0  0  0  0  0
   -0.4252   -0.0540    0.0000 C   0  0  0  0  0  0  0  0  0  0  0  0
   -1.3327    1.1403    0.0000 C   0  0  0  0  0  0  0  0  0  0  0  0
   -2.8208    0.9515    0.0000 C   0  0  0  0  0  0  0  0  0  0  0  0
   -3.7284    2.1458    0.0000 R   0  0  0  0  0  1  0  0  0  0  0  0
   -3.4013   -0.4316    0.0000 O   0  0  0  0  0  0  0  0  0  0  0  0
    1.0629    0.1349    0.0000 C   0  0  0  0  0  0  0  0  0  0  0  0
    1.6434    1.5180    0.0000 C   0  0  0  0  0  0  0  0  0  0  0  0
    3.1315    1.7069    0.0000 C   0  0  0  0  0  0  0  0  0  0  0  0
    4.0390    0.5126    0.0000 C   0  0  0  0  0  0  0  0  0  0  0  0
    3.4585   -0.8705    0.0000 C   0  0  0  0  0  0  0  0  0  0  0  0
    1.9705   -1.0594    0.0000 C   0  0  0  0  0  0  0  0  0  0  0  0
  1  2  1  0
  2  3  1  0
  2  4  1  0
  4  5  1  6
  5  6  1  0
  6  7  1  0
  6  8  2  0
  4  9  1  0
  9 10  1  0
 10 11  1  0
 11 12  1  0
 12 13  1  0
 13 14  1  0
 14  9  1  0
M  ISO  3   1   1   3   3   7   2
M  END
>  <symbol>  (843) 
b3hChg

>  <m_abbr>  (843) 
b3hChg

>  <m_name>  (843) 
L-beta3-homocyclohexylglycine

>  <m_type>  (843) 
aa

>  <m_subtype>  (843) 
modified

>  <m_Rgroups>  (843) 
[H],[OH],[H]

>  <m_chem_types>  (843) 
1:backbone_n,2:backbone_c,3:backbone_n_mod

>  <m_activation_policy>  (843) 
canonical-sites-v1

$$$$

     RDKit          2D

 19 20  0  0  0  0  0  0  0  0999 V2000
   -3.5777   -1.4965    0.0000 R   0  0  0  0  0  1  0  0  0  0  0  0
   -2.1565   -1.0167    0.0000 N   0  0  0  0  0  0  0  0  0  0  0  0
   -1.0304   -2.0076    0.0000 R   0  0  0  0  0  1  0  0  0  0  0  0
   -1.8614    0.4540    0.0000 C   0  0  0  0  0  0  0  0  0  0  0  0
   -2.9876    1.4449    0.0000 C   0  0  0  0  0  0  0  0  0  0  0  0
   -4.4088    0.9650    0.0000 C   0  0  0  0  0  0  0  0  0  0  0  0
   -5.5349    1.9559    0.0000 R   0  0  0  0  0  1  0  0  0  0  0  0
   -4.7038   -0.5057    0.0000 O   0  0  0  0  0  0  0  0  0  0  0  0
   -0.4403    0.9338    0.0000 C   0  0  0  0  0  0  0  0  0  0  0  0
    0.6859   -0.0571    0.0000 C   0  0  0  0  0  0  0  0  0  0  0  0
    0.3908   -1.5278    0.0000 C   0  0  0  0  0  0  0  0  0  0  0  0
    1.5169   -2.5187    0.0000 C   0  0  0  0  0  0  0  0  0  0  0  0
    2.9381   -2.0388    0.0000 C   0  0  0  0  0  0  0  0  0  0  0  0
    3.2332   -0.5681    0.0000 C   0  0  0  0  0  0  0  0  0  0  0  0
    4.6544   -0.0883    0.0000 C   0  0  0  0  0  0  0  0  0  0  0  0
    4.9494    1.3824    0.0000 C   0  0  0  0  0  0  0  0  0  0  0  0
    3.8233    2.3732    0.0000 C   0  0  0  0  0  0  0  0  0  0  0  0
    2.4021    1.8934    0.0000 C   0  0  0  0  0  0  0  0  0  0  0  0
    2.1071    0.4227    0.0000 C   0  0  0  0  0  0  0  0  0  0  0  0
  1  2  1  0
  2  3  1  0
  2  4  1  0
  4  5  1  6
  5  6  1  0
  6  7  1  0
  6  8  2  0
  4  9  1  0
  9 10  1  0
 10 11  2  0
 11 12  1  0
 12 13  2  0
 13 14  1  0
 14 15  2  0
 15 16  1  0
 16 17  2  0
 17 18  1  0
 18 19  2  0
 19 10  1  0
 19 14  1  0
M  ISO  3   1   1   3   3   7   2
M  END
>  <symbol>  (844) 
b3h1Nal

>  <m_abbr>  (844) 
b3h1Nal

>  <m_name>  (844) 
L-beta3-homo-1-naphthylalanine

>  <m_type>  (844) 
aa

>  <m_subtype>  (844) 
modified

>  <m_Rgroups>  (844) 
[H],[OH],[H]

>  <m_chem_types>  (844) 
1:backbone_n,2:backbone_c,3:backbone_n_mod

>  <m_activation_policy>  (844) 
canonical-sites-v1

$$$$

     RDKit          2D

 19 20  0  0  0  0  0  0  0  0999 V2000
   -2.7832    1.8851    0.0000 R   0  0  0  0  0  1  0  0  0  0  0  0
   -1.7609    0.7874    0.0000 N   0  0  0  0  0  0  0  0  0  0  0  0
   -0.2992    1.1238    0.0000 R   0  0  0  0  0  1  0  0  0  0  0  0
   -2.2005   -0.6468    0.0000 C   0  0  0  0  0  0  0  0  0  0  0  0
   -3.6623   -0.9832    0.0000 C   0  0  0  0  0  0  0  0  0  0  0  0
   -4.6845    0.1145    0.0000 C   0  0  0  0  0  0  0  0  0  0  0  0
   -6.1463   -0.2219    0.0000 R   0  0  0  0  0  1  0  0  0  0  0  0
   -4.2450    1.5487    0.0000 O   0  0  0  0  0  0  0  0  0  0  0  0
   -1.1782   -1.7445    0.0000 C   0  0  0  0  0  0  0  0  0  0  0  0
    0.2836   -1.4081    0.0000 C   0  0  0  0  0  0  0  0  0  0  0  0
    1.3058   -2.5058    0.0000 C   0  0  0  0  0  0  0  0  0  0  0  0
    2.7676   -2.1693    0.0000 C   0  0  0  0  0  0  0  0  0  0  0  0
    3.2071   -0.7352    0.0000 C   0  0  0  0  0  0  0  0  0  0  0  0
    4.6689   -0.3988    0.0000 C   0  0  0  0  0  0  0  0  0  0  0  0
    5.1084    1.0354    0.0000 C   0  0  0  0  0  0  0  0  0  0  0  0
    4.0862    2.1331    0.0000 C   0  0  0  0  0  0  0  0  0  0  0  0
    2.6244    1.7967    0.0000 C   0  0  0  0  0  0  0  0  0  0  0  0
    2.1849    0.3625    0.0000 C   0  0  0  0  0  0  0  0  0  0  0  0
    0.7231    0.0261    0.0000 C   0  0  0  0  0  0  0  0  0  0  0  0
  1  2  1  0
  2  3  1  0
  2  4  1  0
  4  5  1  1
  5  6  1  0
  6  7  1  0
  6  8  2  0
  4  9  1  0
  9 10  1  0
 10 11  1  0
 11 12  2  0
 12 13  1  0
 13 14  2  0
 14 15  1  0
 15 16  2  0
 16 17  1  0
 17 18  2  0
 18 19  1  0
 19 10  2  0
 18 13  1  0
M  ISO  3   1   1   3   3   7   2
M  END
>  <symbol>  (845) 
b3h2Nal

>  <m_abbr>  (845) 
b3h2Nal

>  <m_name>  (845) 
L-beta3-homo-2-naphthylalanine

>  <m_type>  (845) 
aa

>  <m_subtype>  (845) 
modified

>  <m_Rgroups>  (845) 
[H],[OH],[H]

>  <m_chem_types>  (845) 
1:backbone_n,2:backbone_c,3:backbone_n_mod

>  <m_activation_policy>  (845) 
canonical-sites-v1

$$$$

     RDKit          2D

 14 13  0  0  0  0  0  0  0  0999 V2000
   -0.9424   -2.4658    0.0000 R   0  0  0  0  0  1  0  0  0  0  0  0
    0.5056   -2.0741    0.0000 N   0  0  0  0  0  0  0  0  0  0  0  0
    1.5688   -3.1322    0.0000 R   0  0  0  0  0  1  0  0  0  0  0  0
    0.8903   -0.6243    0.0000 C   0  0  0  0  0  0  0  0  0  0  0  0
    2.3383   -0.2325    0.0000 C   0  0  0  0  0  0  0  0  0  0  0  0
    2.7230    1.2173    0.0000 C   0  0  0  0  0  0  0  0  0  0  0  0
    4.1710    1.6090    0.0000 R   0  0  0  0  0  1  0  0  0  0  0  0
    1.6598    2.2754    0.0000 O   0  0  0  0  0  0  0  0  0  0  0  0
   -0.1729    0.4339    0.0000 C   0  0  0  0  0  0  0  0  0  0  0  0
   -1.6208    0.0421    0.0000 C   0  0  0  0  0  0  0  0  0  0  0  0
   -2.0056   -1.4077    0.0000 O   0  0  0  0  0  0  0  0  0  0  0  0
   -2.6840    1.1002    0.0000 N   0  0  0  0  0  0  0  0  0  0  0  0
   -4.1320    0.7085    0.0000 R   0  0  0  0  0  1  0  0  0  0  0  0
   -2.2993    2.5501    0.0000 R   0  0  0  0  0  1  0  0  0  0  0  0
  1  2  1  0
  2  3  1  0
  2  4  1  0
  4  5  1  1
  5  6  1  0
  6  7  1  0
  6  8  2  0
  4  9  1  0
  9 10  1  0
 10 11  2  0
 10 12  1  0
 12 13  1  0
 12 14  1  0
M  ISO  5   1   1   3   3   7   2  13   4  14   5
M  END
>  <symbol>  (846) 
b3hAsn

>  <m_abbr>  (846) 
b3hAsn

>  <m_name>  (846) 
L-beta3-homoasparagine

>  <m_type>  (846) 
aa

>  <m_subtype>  (846) 
modified

>  <m_Rgroups>  (846) 
[H],[OH],[H],[H],[H]

>  <m_chem_types>  (846) 
1:backbone_n,2:backbone_c,3:backbone_n_mod,4:amide_nh,5:amide_nh

>  <m_activation_policy>  (846) 
canonical-sites-v1

$$$$

     RDKit          2D

 15 14  0  0  0  0  0  0  0  0999 V2000
   -4.5037   -0.1907    0.0000 R   0  0  0  0  0  1  0  0  0  0  0  0
   -3.2062   -0.9434    0.0000 N   0  0  0  0  0  0  0  0  0  0  0  0
   -3.2093   -2.4434    0.0000 R   0  0  0  0  0  1  0  0  0  0  0  0
   -1.9057   -0.1961    0.0000 C   0  0  0  0  0  0  0  0  0  0  0  0
   -0.6082   -0.9488    0.0000 C   0  0  0  0  0  0  0  0  0  0  0  0
    0.6924   -0.2014    0.0000 C   0  0  0  0  0  0  0  0  0  0  0  0
    1.9899   -0.9541    0.0000 C   0  0  0  0  0  0  0  0  0  0  0  0
    1.9868   -2.4541    0.0000 O   0  0  0  0  0  0  0  0  0  0  0  0
    3.2905   -0.2068    0.0000 N   0  0  0  0  0  0  0  0  0  0  0  0
    4.5880   -0.9594    0.0000 R   0  0  0  0  0  1  0  0  0  0  0  0
    3.2936    1.2932    0.0000 R   0  0  0  0  0  1  0  0  0  0  0  0
   -1.9026    1.3039    0.0000 C   0  0  0  0  0  0  0  0  0  0  0  0
   -0.6020    2.0512    0.0000 C   0  0  0  0  0  0  0  0  0  0  0  0
   -0.5989    3.5512    0.0000 R   0  0  0  0  0  1  0  0  0  0  0  0
    0.6955    1.2986    0.0000 O   0  0  0  0  0  0  0  0  0  0  0  0
  1  2  1  0
  2  3  1  0
  2  4  1  0
  4  5  1  6
  5  6  1  0
  6  7  1  0
  7  8  2  0
  7  9  1  0
  9 10  1  0
  9 11  1  0
  4 12  1  0
 12 13  1  0
 13 14  1  0
 13 15  2  0
M  ISO  5   1   1   3   3  10   4  11   5  14   2
M  END
>  <symbol>  (847) 
b3hGln

>  <m_abbr>  (847) 
b3hGln

>  <m_name>  (847) 
L-beta3-homoglutamine

>  <m_type>  (847) 
aa

>  <m_subtype>  (847) 
modified

>  <m_Rgroups>  (847) 
[H],[OH],[H],[H],[H]

>  <m_chem_types>  (847) 
1:backbone_n,2:backbone_c,3:backbone_n_mod,4:amide_nh,5:amide_nh

>  <m_activation_policy>  (847) 
canonical-sites-v1

$$$$

     RDKit          2D

 15 15  0  0  0  0  0  0  0  0999 V2000
   -2.2888    1.7292    0.0000 R   0  0  0  0  0  1  0  0  0  0  0  0
   -0.9588    1.0356    0.0000 N   0  0  0  0  0  0  0  0  0  0  0  0
    0.3068    1.8407    0.0000 R   0  0  0  0  0  1  0  0  0  0  0  0
   -0.8945   -0.4630    0.0000 C   0  0  0  0  0  0  0  0  0  0  0  0
   -2.1601   -1.2680    0.0000 C   0  0  0  0  0  0  0  0  0  0  0  0
   -3.4901   -0.5744    0.0000 C   0  0  0  0  0  0  0  0  0  0  0  0
   -4.7558   -1.3795    0.0000 R   0  0  0  0  0  1  0  0  0  0  0  0
   -3.5545    0.9242    0.0000 O   0  0  0  0  0  0  0  0  0  0  0  0
    0.4356   -1.1566    0.0000 C   0  0  0  0  0  0  0  0  0  0  0  0
    1.7012   -0.3515    0.0000 C   0  0  0  0  0  0  0  0  0  0  0  0
    1.7939    1.1456    0.0000 C   0  0  0  0  0  0  0  0  0  0  0  0
    3.2464    1.5202    0.0000 N   0  0  0  0  0  0  0  0  0  0  0  0
    4.0514    0.2545    0.0000 C   0  0  0  0  0  0  0  0  0  0  0  0
    3.0965   -0.9023    0.0000 N   0  0  0  0  0  0  0  0  0  0  0  0
    3.4710   -2.3547    0.0000 R   0  0  0  0  0  1  0  0  0  0  0  0
  1  2  1  0
  2  3  1  0
  2  4  1  0
  4  5  1  1
  5  6  1  0
  6  7  1  0
  6  8  2  0
  4  9  1  0
  9 10  1  0
 10 11  2  0
 11 12  1  0
 12 13  2  0
 13 14  1  0
 14 15  1  0
 14 10  1  0
M  ISO  4   1   1   3   3   7   2  15   4
M  END
>  <symbol>  (848) 
b3hHis

>  <m_abbr>  (848) 
b3hHis

>  <m_name>  (848) 
L-beta3-homohistidine

>  <m_type>  (848) 
aa

>  <m_subtype>  (848) 
modified

>  <m_Rgroups>  (848) 
[H],[OH],[H],[H]

>  <m_chem_types>  (848) 
1:backbone_n,2:backbone_c,3:backbone_n_mod,4:aromatic_nh

>  <m_activation_policy>  (848) 
canonical-sites-v1

$$$$

     RDKit          2D

 19 20  0  0  0  0  0  0  0  0999 V2000
   -3.4744   -1.5781    0.0000 R   0  0  0  0  0  1  0  0  0  0  0  0
   -2.1056   -0.9645    0.0000 N   0  0  0  0  0  0  0  0  0  0  0  0
   -0.8899   -1.8432    0.0000 R   0  0  0  0  0  1  0  0  0  0  0  0
   -1.9525    0.5276    0.0000 C   0  0  0  0  0  0  0  0  0  0  0  0
   -3.1683    1.4063    0.0000 C   0  0  0  0  0  0  0  0  0  0  0  0
   -4.5371    0.7927    0.0000 C   0  0  0  0  0  0  0  0  0  0  0  0
   -5.7528    1.6713    0.0000 R   0  0  0  0  0  1  0  0  0  0  0  0
   -4.6901   -0.6995    0.0000 O   0  0  0  0  0  0  0  0  0  0  0  0
   -0.5838    1.1412    0.0000 C   0  0  0  0  0  0  0  0  0  0  0  0
    0.6320    0.2626    0.0000 C   0  0  0  0  0  0  0  0  0  0  0  0
    0.6357   -1.2374    0.0000 C   0  0  0  0  0  0  0  0  0  0  0  0
    2.0635   -1.6974    0.0000 N   0  0  0  0  0  0  0  0  0  0  0  0
    2.5306   -3.1228    0.0000 R   0  0  0  0  0  1  0  0  0  0  0  0
    2.9421   -0.4816    0.0000 C   0  0  0  0  0  0  0  0  0  0  0  0
    4.4335   -0.3211    0.0000 C   0  0  0  0  0  0  0  0  0  0  0  0
    5.0402    1.0507    0.0000 C   0  0  0  0  0  0  0  0  0  0  0  0
    4.1554    2.2620    0.0000 C   0  0  0  0  0  0  0  0  0  0  0  0
    2.6640    2.1015    0.0000 C   0  0  0  0  0  0  0  0  0  0  0  0
    2.0574    0.7297    0.0000 C   0  0  0  0  0  0  0  0  0  0  0  0
  1  2  1  0
  2  3  1  0
  2  4  1  0
  4  5  1  6
  5  6  1  0
  6  7  1  0
  6  8  2  0
  4  9  1  0
  9 10  1  0
 10 11  2  0
 11 12  1  0
 12 13  1  0
 12 14  1  0
 14 15  2  0
 15 16  1  0
 16 17  2  0
 17 18  1  0
 18 19  2  0
 19 10  1  0
 19 14  1  0
M  ISO  4   1   1   3   3   7   2  13   4
M  END
>  <symbol>  (849) 
b3hTrp

>  <m_abbr>  (849) 
b3hTrp

>  <m_name>  (849) 
L-beta3-homotryptophan

>  <m_type>  (849) 
aa

>  <m_subtype>  (849) 
modified

>  <m_Rgroups>  (849) 
[H],[OH],[H],[H]

>  <m_chem_types>  (849) 
1:backbone_n,2:backbone_c,3:backbone_n_mod,4:aromatic_nh

>  <m_activation_policy>  (849) 
canonical-sites-v1

$$$$

     RDKit          2D

 12 11  0  0  0  0  0  0  0  0999 V2000
   -3.6711    0.4585    0.0000 R   0  0  0  0  0  1  0  0  0  0  0  0
   -2.5730   -0.5633    0.0000 N   0  0  0  0  0  0  0  0  0  0  0  0
   -2.9088   -2.0252    0.0000 R   0  0  0  0  0  1  0  0  0  0  0  0
   -1.1390   -0.1231    0.0000 C   0  0  0  0  0  0  0  0  0  0  0  0
   -0.0408   -1.1449    0.0000 C   0  0  0  0  0  0  0  0  0  0  0  0
    1.3931   -0.7048    0.0000 C   0  0  0  0  0  0  0  0  0  0  0  0
    2.4913   -1.7265    0.0000 C   0  0  0  0  0  0  0  0  0  0  0  0
    3.9253   -1.2864    0.0000 C   0  0  0  0  0  0  0  0  0  0  0  0
   -0.8032    1.3388    0.0000 C   0  0  0  0  0  0  0  0  0  0  0  0
    0.6308    1.7789    0.0000 C   0  0  0  0  0  0  0  0  0  0  0  0
    0.9666    3.2409    0.0000 R   0  0  0  0  0  1  0  0  0  0  0  0
    1.7289    0.7572    0.0000 O   0  0  0  0  0  0  0  0  0  0  0  0
  1  2  1  0
  2  3  1  0
  2  4  1  0
  4  5  1  1
  5  6  1  0
  6  7  1  0
  7  8  1  0
  4  9  1  0
  9 10  1  0
 10 11  1  0
 10 12  2  0
M  ISO  3   1   1   3   3  11   2
M  END
>  <symbol>  (850) 
D_b3hNle

>  <m_abbr>  (850) 
D_b3hNle

>  <m_name>  (850) 
D-beta3-homonorleucine

>  <m_type>  (850) 
aa

>  <m_subtype>  (850) 
modified

>  <m_Rgroups>  (850) 
[H],[OH],[H]

>  <m_chem_types>  (850) 
1:backbone_n,2:backbone_c,3:backbone_n_mod

>  <m_activation_policy>  (850) 
canonical-sites-v1

$$$$

     RDKit          2D

 17 17  0  0  0  0  0  0  0  0999 V2000
   -2.7848    1.8016    0.0000 R   0  0  0  0  0  1  0  0  0  0  0  0
   -1.5847    0.9017    0.0000 N   0  0  0  0  0  0  0  0  0  0  0  0
   -0.2054    1.4911    0.0000 R   0  0  0  0  0  1  0  0  0  0  0  0
   -1.7640   -0.5875    0.0000 C   0  0  0  0  0  0  0  0  0  0  0  0
   -3.1433   -1.1769    0.0000 C   0  0  0  0  0  0  0  0  0  0  0  0
   -4.3434   -0.2771    0.0000 C   0  0  0  0  0  0  0  0  0  0  0  0
   -5.7228   -0.8665    0.0000 R   0  0  0  0  0  1  0  0  0  0  0  0
   -4.1642    1.2122    0.0000 O   0  0  0  0  0  0  0  0  0  0  0  0
   -0.5639   -1.4874    0.0000 C   0  0  0  0  0  0  0  0  0  0  0  0
    0.8155   -0.8980    0.0000 C   0  0  0  0  0  0  0  0  0  0  0  0
    0.9948    0.5912    0.0000 C   0  0  0  0  0  0  0  0  0  0  0  0
    2.3741    1.1806    0.0000 C   0  0  0  0  0  0  0  0  0  0  0  0
    3.5742    0.2808    0.0000 C   0  0  0  0  0  0  0  0  0  0  0  0
    4.9536    0.8702    0.0000 O   0  0  0  0  0  0  0  0  0  0  0  0
    6.1537   -0.0297    0.0000 R   0  0  0  0  0  1  0  0  0  0  0  0
    3.3950   -1.2085    0.0000 C   0  0  0  0  0  0  0  0  0  0  0  0
    2.0156   -1.7979    0.0000 C   0  0  0  0  0  0  0  0  0  0  0  0
  1  2  1  0
  2  3  1  0
  2  4  1  0
  4  5  1  6
  5  6  1  0
  6  7  1  0
  6  8  2  0
  4  9  1  0
  9 10  1  0
 10 11  1  0
 11 12  2  0
 12 13  1  0
 13 14  1  0
 14 15  1  0
 13 16  2  0
 16 17  1  0
 17 10  2  0
M  ISO  4   1   1   3   3   7   2  15   4
M  END
>  <symbol>  (851) 
D_b3hTyr

>  <m_abbr>  (851) 
D_b3hTyr

>  <m_name>  (851) 
D-beta3-homotyrosine

>  <m_type>  (851) 
aa

>  <m_subtype>  (851) 
modified

>  <m_Rgroups>  (851) 
[H],[OH],[H],[H]

>  <m_chem_types>  (851) 
1:backbone_n,2:backbone_c,3:backbone_n_mod,4:aryl_phenol_o

>  <m_activation_policy>  (851) 
canonical-sites-v1

$$$$

     RDKit          2D

 15 14  0  0  0  0  0  0  0  0999 V2000
   -4.8121   -0.6112    0.0000 R   0  0  0  0  0  1  0  0  0  0  0  0
   -3.4412   -1.2199    0.0000 N   0  0  0  0  0  0  0  0  0  0  0  0
   -3.2829   -2.7115    0.0000 R   0  0  0  0  0  1  0  0  0  0  0  0
   -2.2285   -0.3370    0.0000 C   0  0  0  0  0  0  0  0  0  0  0  0
   -0.8576   -0.9458    0.0000 C   0  0  0  0  0  0  0  0  0  0  0  0
    0.3550   -0.0629    0.0000 C   0  0  0  0  0  0  0  0  0  0  0  0
    1.7260   -0.6716    0.0000 C   0  0  0  0  0  0  0  0  0  0  0  0
    2.9386    0.2113    0.0000 C   0  0  0  0  0  0  0  0  0  0  0  0
    4.3095   -0.3975    0.0000 N   0  0  0  0  0  0  0  0  0  0  0  0
    5.5222    0.4854    0.0000 R   0  0  0  0  0  1  0  0  0  0  0  0
    4.4678   -1.8891    0.0000 R   0  0  0  0  0  1  0  0  0  0  0  0
   -2.3868    1.1546    0.0000 C   0  0  0  0  0  0  0  0  0  0  0  0
   -1.1742    2.0375    0.0000 C   0  0  0  0  0  0  0  0  0  0  0  0
   -1.3324    3.5291    0.0000 R   0  0  0  0  0  1  0  0  0  0  0  0
    0.1968    1.4287    0.0000 O   0  0  0  0  0  0  0  0  0  0  0  0
  1  2  1  0
  2  3  1  0
  2  4  1  0
  4  5  1  1
  5  6  1  0
  6  7  1  0
  7  8  1  0
  8  9  1  0
  9 10  1  0
  9 11  1  0
  4 12  1  0
 12 13  1  0
 13 14  1  0
 13 15  2  0
M  ISO  5   1   1   3   3  10   4  11   5  14   2
M  END
>  <symbol>  (852) 
D_b3hLys

>  <m_abbr>  (852) 
D_b3hLys

>  <m_name>  (852) 
D-beta3-homolysine

>  <m_type>  (852) 
aa

>  <m_subtype>  (852) 
modified

>  <m_Rgroups>  (852) 
[H],[OH],[H],[H],[H]

>  <m_chem_types>  (852) 
1:backbone_n,2:backbone_c,3:backbone_n_mod,4:amine_primary,5:amine_primary

>  <m_activation_policy>  (852) 
canonical-sites-v1

$$$$

     RDKit          2D

 12 11  0  0  0  0  0  0  0  0999 V2000
   -2.3098   -1.2902    0.0000 R   0  0  0  0  0  1  0  0  0  0  0  0
   -0.8410   -1.5946    0.0000 N   0  0  0  0  0  0  0  0  0  0  0  0
   -0.3702   -3.0188    0.0000 R   0  0  0  0  0  1  0  0  0  0  0  0
    0.1569   -0.4747    0.0000 C   0  0  0  0  0  0  0  0  0  0  0  0
    1.6257   -0.7791    0.0000 C   0  0  0  0  0  0  0  0  0  0  0  0
    2.6237    0.3408    0.0000 C   0  0  0  0  0  0  0  0  0  0  0  0
    4.0925    0.0364    0.0000 R   0  0  0  0  0  1  0  0  0  0  0  0
    2.1529    1.7650    0.0000 O   0  0  0  0  0  0  0  0  0  0  0  0
   -0.3139    0.9495    0.0000 C   0  0  0  0  0  0  0  0  0  0  0  0
   -1.7827    1.2538    0.0000 C   0  0  0  0  0  0  0  0  0  0  0  0
   -2.7807    0.1340    0.0000 R   0  0  0  0  0  1  0  0  0  0  0  0
   -2.2535    2.6780    0.0000 O   0  0  0  0  0  0  0  0  0  0  0  0
  1  2  1  0
  2  3  1  0
  2  4  1  0
  4  5  1  0
  5  6  1  0
  6  7  1  0
  6  8  2  0
  4  9  1  0
  9 10  1  0
 10 11  1  0
 10 12  2  0
M  ISO  4   1   1   3   3   7   2  11   4
M  END
>  <symbol>  (853) 
D_b3hAsp

>  <m_abbr>  (853) 
D_b3hAsp

>  <m_name>  (853) 
D-beta3-homoaspartate

>  <m_type>  (853) 
aa

>  <m_subtype>  (853) 
modified

>  <m_Rgroups>  (853) 
[H],[OH],[H],[OH]

>  <m_chem_types>  (853) 
1:backbone_n,2:backbone_c,3:backbone_n_mod,4:carboxyl

>  <m_activation_policy>  (853) 
canonical-sites-v1

$$$$

     RDKit          2D

 13 12  0  0  0  0  0  0  0  0999 V2000
   -3.8971   -0.1731    0.0000 R   0  0  0  0  0  1  0  0  0  0  0  0
   -2.5981   -0.9231    0.0000 N   0  0  0  0  0  0  0  0  0  0  0  0
   -2.5981   -2.4231    0.0000 R   0  0  0  0  0  1  0  0  0  0  0  0
   -1.2990   -0.1731    0.0000 C   0  0  0  0  0  0  0  0  0  0  0  0
   -0.0000   -0.9231    0.0000 C   0  0  0  0  0  0  0  0  0  0  0  0
    1.2990   -0.1731    0.0000 C   0  0  0  0  0  0  0  0  0  0  0  0
    2.5981   -0.9231    0.0000 C   0  0  0  0  0  0  0  0  0  0  0  0
    3.8971   -0.1731    0.0000 R   0  0  0  0  0  1  0  0  0  0  0  0
    2.5981   -2.4231    0.0000 O   0  0  0  0  0  0  0  0  0  0  0  0
   -1.2990    1.3269    0.0000 C   0  0  0  0  0  0  0  0  0  0  0  0
   -0.0000    2.0769    0.0000 C   0  0  0  0  0  0  0  0  0  0  0  0
   -0.0000    3.5769    0.0000 R   0  0  0  0  0  1  0  0  0  0  0  0
    1.2990    1.3269    0.0000 O   0  0  0  0  0  0  0  0  0  0  0  0
  1  2  1  0
  2  3  1  0
  2  4  1  0
  4  5  1  1
  5  6  1  0
  6  7  1  0
  7  8  1  0
  7  9  2  0
  4 10  1  0
 10 11  1  0
 11 12  1  0
 11 13  2  0
M  ISO  4   1   1   3   3   8   4  12   2
M  END
>  <symbol>  (854) 
D_b3hGlu

>  <m_abbr>  (854) 
D_b3hGlu

>  <m_name>  (854) 
D-beta3-homoglutamate

>  <m_type>  (854) 
aa

>  <m_subtype>  (854) 
modified

>  <m_Rgroups>  (854) 
[H],[OH],[H],[OH]

>  <m_chem_types>  (854) 
1:backbone_n,2:backbone_c,3:backbone_n_mod,4:carboxyl

>  <m_activation_policy>  (854) 
canonical-sites-v1

$$$$

     RDKit          2D

 16 16  0  0  0  0  0  0  0  0999 V2000
   -2.3975    1.8033    0.0000 R   0  0  0  0  0  1  0  0  0  0  0  0
   -1.1988    0.9017    0.0000 N   0  0  0  0  0  0  0  0  0  0  0  0
    0.1815    1.4890    0.0000 R   0  0  0  0  0  1  0  0  0  0  0  0
   -1.3802   -0.5873    0.0000 C   0  0  0  0  0  0  0  0  0  0  0  0
   -2.7605   -1.1747    0.0000 C   0  0  0  0  0  0  0  0  0  0  0  0
   -3.9592   -0.2730    0.0000 C   0  0  0  0  0  0  0  0  0  0  0  0
   -5.3395   -0.8603    0.0000 R   0  0  0  0  0  1  0  0  0  0  0  0
   -3.7777    1.2160    0.0000 O   0  0  0  0  0  0  0  0  0  0  0  0
   -0.1815   -1.4890    0.0000 C   0  0  0  0  0  0  0  0  0  0  0  0
    1.1988   -0.9017    0.0000 C   0  0  0  0  0  0  0  0  0  0  0  0
    1.3802    0.5873    0.0000 C   0  0  0  0  0  0  0  0  0  0  0  0
    2.7605    1.1747    0.0000 C   0  0  0  0  0  0  0  0  0  0  0  0
    3.9592    0.2730    0.0000 C   0  0  0  0  0  0  0  0  0  0  0  0
    5.3395    0.8603    0.0000 Br  0  0  0  0  0  0  0  0  0  0  0  0
    3.7777   -1.2160    0.0000 C   0  0  0  0  0  0  0  0  0  0  0  0
    2.3975   -1.8033    0.0000 C   0  0  0  0  0  0  0  0  0  0  0  0
  1  2  1  0
  2  3  1  0
  2  4  1  0
  4  5  1  6
  5  6  1  0
  6  7  1  0
  6  8  2  0
  4  9  1  0
  9 10  1  0
 10 11  1  0
 11 12  2  0
 12 13  1  0
 13 14  1  0
 13 15  2  0
 15 16  1  0
 16 10  2  0
M  ISO  3   1   1   3   3   7   2
M  END
>  <symbol>  (855) 
D_b3hPhe_4Br

>  <m_abbr>  (855) 
D_b3hPhe_4Br

>  <m_name>  (855) 
D-beta3-homo-4-bromophenylalanine

>  <m_type>  (855) 
aa

>  <m_subtype>  (855) 
modified

>  <m_Rgroups>  (855) 
[H],[OH],[H]

>  <m_chem_types>  (855) 
1:backbone_n,2:backbone_c,3:backbone_n_mod

>  <m_activation_policy>  (855) 
canonical-sites-v1

$$$$

     RDKit          2D

 20 21  0  0  0  0  0  0  0  0999 V2000
   -3.8597   -1.4950    0.0000 R   0  0  0  0  0  1  0  0  0  0  0  0
   -2.4689   -0.9332    0.0000 N   0  0  0  0  0  0  0  0  0  0  0  0
   -1.2870   -1.8568    0.0000 R   0  0  0  0  0  1  0  0  0  0  0  0
   -2.2600    0.5522    0.0000 C   0  0  0  0  0  0  0  0  0  0  0  0
   -3.4420    1.4758    0.0000 C   0  0  0  0  0  0  0  0  0  0  0  0
   -4.8328    0.9140    0.0000 C   0  0  0  0  0  0  0  0  0  0  0  0
   -6.0147    1.8376    0.0000 R   0  0  0  0  0  1  0  0  0  0  0  0
   -5.0417   -0.5714    0.0000 O   0  0  0  0  0  0  0  0  0  0  0  0
   -0.8692    1.1140    0.0000 C   0  0  0  0  0  0  0  0  0  0  0  0
    0.3128    0.1904    0.0000 C   0  0  0  0  0  0  0  0  0  0  0  0
    0.2603   -1.3087    0.0000 C   0  0  0  0  0  0  0  0  0  0  0  0
    1.6698   -1.8218    0.0000 N   0  0  0  0  0  0  0  0  0  0  0  0
    2.0831   -3.2638    0.0000 R   0  0  0  0  0  1  0  0  0  0  0  0
    2.5934   -0.6399    0.0000 C   0  0  0  0  0  0  0  0  0  0  0  0
    4.0897   -0.5354    0.0000 C   0  0  0  0  0  0  0  0  0  0  0  0
    4.7474    0.8128    0.0000 C   0  0  0  0  0  0  0  0  0  0  0  0
    6.2437    0.9173    0.0000 F   0  0  0  0  0  0  0  0  0  0  0  0
    3.9087    2.0564    0.0000 C   0  0  0  0  0  0  0  0  0  0  0  0
    2.4123    1.9519    0.0000 C   0  0  0  0  0  0  0  0  0  0  0  0
    1.7547    0.6037    0.0000 C   0  0  0  0  0  0  0  0  0  0  0  0
  1  2  1  0
  2  3  1  0
  2  4  1  0
  4  5  1  1
  5  6  1  0
  6  7  1  0
  6  8  2  0
  4  9  1  0
  9 10  1  0
 10 11  2  0
 11 12  1  0
 12 13  1  0
 12 14  1  0
 14 15  1  0
 15 16  2  0
 16 17  1  0
 16 18  1  0
 18 19  2  0
 19 20  1  0
 20 10  1  0
 20 14  2  0
M  ISO  4   1   1   3   3   7   2  13   4
M  END
>  <symbol>  (856) 
D_b3hTrp_5F

>  <m_abbr>  (856) 
D_b3hTrp_5F

>  <m_name>  (856) 
D-beta3-homo-5-fluorotryptophan

>  <m_type>  (856) 
aa

>  <m_subtype>  (856) 
modified

>  <m_Rgroups>  (856) 
[H],[OH],[H],[H]

>  <m_chem_types>  (856) 
1:backbone_n,2:backbone_c,3:backbone_n_mod,4:aromatic_nh

>  <m_activation_policy>  (856) 
canonical-sites-v1

$$$$

     RDKit          2D

 12 11  0  0  0  0  0  0  0  0999 V2000
   -2.9088    2.0252    0.0000 R   0  0  0  0  0  1  0  0  0  0  0  0
   -2.5730    0.5633    0.0000 N   0  0  0  0  0  0  0  0  0  0  0  0
   -3.6711   -0.4585    0.0000 R   0  0  0  0  0  1  0  0  0  0  0  0
   -1.1390    0.1231    0.0000 C   0  0  0  0  0  0  0  0  0  0  0  0
   -0.0408    1.1449    0.0000 C   0  0  0  0  0  0  0  0  0  0  0  0
    1.3931    0.7048    0.0000 C   0  0  0  0  0  0  0  0  0  0  0  0
    2.4913    1.7265    0.0000 S   0  0  0  0  0  0  0  0  0  0  0  0
    3.9253    1.2864    0.0000 C   0  0  0  0  0  0  0  0  0  0  0  0
   -0.8032   -1.3388    0.0000 C   0  0  0  0  0  0  0  0  0  0  0  0
    0.6308   -1.7789    0.0000 C   0  0  0  0  0  0  0  0  0  0  0  0
    0.9666   -3.2409    0.0000 R   0  0  0  0  0  1  0  0  0  0  0  0
    1.7289   -0.7572    0.0000 O   0  0  0  0  0  0  0  0  0  0  0  0
  1  2  1  0
  2  3  1  0
  2  4  1  0
  4  5  1  6
  5  6  1  0
  6  7  1  0
  7  8  1  0
  4  9  1  0
  9 10  1  0
 10 11  1  0
 10 12  2  0
M  ISO  3   1   1   3   3  11   2
M  END
>  <symbol>  (857) 
D_b3hMet

>  <m_abbr>  (857) 
D_b3hMet

>  <m_name>  (857) 
D-beta3-homomethionine

>  <m_type>  (857) 
aa

>  <m_subtype>  (857) 
modified

>  <m_Rgroups>  (857) 
[H],[OH],[H]

>  <m_chem_types>  (857) 
1:backbone_n,2:backbone_c,3:backbone_n_mod

>  <m_activation_policy>  (857) 
canonical-sites-v1

$$$$

     RDKit          2D

 11 10  0  0  0  0  0  0  0  0999 V2000
   -3.0682    1.2990    0.0000 R   0  0  0  0  0  1  0  0  0  0  0  0
   -2.3182    0.0000    0.0000 N   0  0  0  0  0  0  0  0  0  0  0  0
   -3.0682   -1.2990    0.0000 R   0  0  0  0  0  1  0  0  0  0  0  0
   -0.8182   -0.0000    0.0000 C   0  0  0  0  0  0  0  0  0  0  0  0
   -0.0682   -1.2990    0.0000 C   0  0  0  0  0  0  0  0  0  0  0  0
    1.4318   -1.2990    0.0000 C   0  0  0  0  0  0  0  0  0  0  0  0
    2.1818   -2.5981    0.0000 C   0  0  0  0  0  0  0  0  0  0  0  0
   -0.0682    1.2990    0.0000 C   0  0  0  0  0  0  0  0  0  0  0  0
    1.4318    1.2990    0.0000 C   0  0  0  0  0  0  0  0  0  0  0  0
    2.1818    2.5981    0.0000 R   0  0  0  0  0  1  0  0  0  0  0  0
    2.1818    0.0000    0.0000 O   0  0  0  0  0  0  0  0  0  0  0  0
  1  2  1  0
  2  3  1  0
  2  4  1  0
  4  5  1  1
  5  6  1  0
  6  7  1  0
  4  8  1  0
  8  9  1  0
  9 10  1  0
  9 11  2  0
M  ISO  3   1   1   3   3  10   2
M  END
>  <symbol>  (858) 
D_b3hNva

>  <m_abbr>  (858) 
D_b3hNva

>  <m_name>  (858) 
D-beta3-homonorvaline

>  <m_type>  (858) 
aa

>  <m_subtype>  (858) 
modified

>  <m_Rgroups>  (858) 
[H],[OH],[H]

>  <m_chem_types>  (858) 
1:backbone_n,2:backbone_c,3:backbone_n_mod

>  <m_activation_policy>  (858) 
canonical-sites-v1

$$$$

     RDKit          2D

 15 15  0  0  0  0  0  0  0  0999 V2000
   -2.1298    1.7590    0.0000 R   0  0  0  0  0  1  0  0  0  0  0  0
   -0.8885    0.9168    0.0000 N   0  0  0  0  0  0  0  0  0  0  0  0
    0.4614    1.5707    0.0000 R   0  0  0  0  0  1  0  0  0  0  0  0
   -0.9972   -0.5793    0.0000 C   0  0  0  0  0  0  0  0  0  0  0  0
   -2.3472   -1.2332    0.0000 C   0  0  0  0  0  0  0  0  0  0  0  0
   -3.5885   -0.3910    0.0000 C   0  0  0  0  0  0  0  0  0  0  0  0
   -4.9384   -1.0449    0.0000 R   0  0  0  0  0  1  0  0  0  0  0  0
   -3.4798    1.1051    0.0000 O   0  0  0  0  0  0  0  0  0  0  0  0
    0.2441   -1.4214    0.0000 C   0  0  0  0  0  0  0  0  0  0  0  0
    1.5940   -0.7675    0.0000 C   0  0  0  0  0  0  0  0  0  0  0  0
    1.7027    0.7285    0.0000 C   0  0  0  0  0  0  0  0  0  0  0  0
    3.0527    1.3824    0.0000 C   0  0  0  0  0  0  0  0  0  0  0  0
    4.2940    0.5403    0.0000 C   0  0  0  0  0  0  0  0  0  0  0  0
    4.1853   -0.9558    0.0000 C   0  0  0  0  0  0  0  0  0  0  0  0
    2.8353   -1.6097    0.0000 C   0  0  0  0  0  0  0  0  0  0  0  0
  1  2  1  0
  2  3  1  0
  2  4  1  0
  4  5  1  6
  5  6  1  0
  6  7  1  0
  6  8  2  0
  4  9  1  0
  9 10  1  0
 10 11  1  0
 11 12  1  0
 12 13  1  0
 13 14  1  0
 14 15  1  0
 15 10  1  0
M  ISO  3   1   1   3   3   7   2
M  END
>  <symbol>  (859) 
D_b3hCha

>  <m_abbr>  (859) 
D_b3hCha

>  <m_name>  (859) 
D-beta3-homocyclohexylalanine

>  <m_type>  (859) 
aa

>  <m_subtype>  (859) 
modified

>  <m_Rgroups>  (859) 
[H],[OH],[H]

>  <m_chem_types>  (859) 
1:backbone_n,2:backbone_c,3:backbone_n_mod

>  <m_activation_policy>  (859) 
canonical-sites-v1

$$$$

     RDKit          2D

 14 14  0  0  0  0  0  0  0  0999 V2000
   -2.4937   -1.6259    0.0000 R   0  0  0  0  0  1  0  0  0  0  0  0
   -1.0057   -1.4371    0.0000 N   0  0  0  0  0  0  0  0  0  0  0  0
   -0.0981   -2.6314    0.0000 R   0  0  0  0  0  1  0  0  0  0  0  0
   -0.4252   -0.0540    0.0000 C   0  0  0  0  0  0  0  0  0  0  0  0
   -1.3327    1.1403    0.0000 C   0  0  0  0  0  0  0  0  0  0  0  0
   -2.8208    0.9515    0.0000 C   0  0  0  0  0  0  0  0  0  0  0  0
   -3.7284    2.1458    0.0000 R   0  0  0  0  0  1  0  0  0  0  0  0
   -3.4013   -0.4316    0.0000 O   0  0  0  0  0  0  0  0  0  0  0  0
    1.0629    0.1349    0.0000 C   0  0  0  0  0  0  0  0  0  0  0  0
    1.6434    1.5180    0.0000 C   0  0  0  0  0  0  0  0  0  0  0  0
    3.1315    1.7069    0.0000 C   0  0  0  0  0  0  0  0  0  0  0  0
    4.0390    0.5126    0.0000 C   0  0  0  0  0  0  0  0  0  0  0  0
    3.4585   -0.8705    0.0000 C   0  0  0  0  0  0  0  0  0  0  0  0
    1.9705   -1.0594    0.0000 C   0  0  0  0  0  0  0  0  0  0  0  0
  1  2  1  0
  2  3  1  0
  2  4  1  0
  4  5  1  1
  5  6  1  0
  6  7  1  0
  6  8  2  0
  4  9  1  0
  9 10  1  0
 10 11  1  0
 11 12  1  0
 12 13  1  0
 13 14  1  0
 14  9  1  0
M  ISO  3   1   1   3   3   7   2
M  END
>  <symbol>  (860) 
D_b3hChg

>  <m_abbr>  (860) 
D_b3hChg

>  <m_name>  (860) 
D-beta3-homocyclohexylglycine

>  <m_type>  (860) 
aa

>  <m_subtype>  (860) 
modified

>  <m_Rgroups>  (860) 
[H],[OH],[H]

>  <m_chem_types>  (860) 
1:backbone_n,2:backbone_c,3:backbone_n_mod

>  <m_activation_policy>  (860) 
canonical-sites-v1

$$$$

     RDKit          2D

 19 20  0  0  0  0  0  0  0  0999 V2000
   -3.5777   -1.4965    0.0000 R   0  0  0  0  0  1  0  0  0  0  0  0
   -2.1565   -1.0167    0.0000 N   0  0  0  0  0  0  0  0  0  0  0  0
   -1.0304   -2.0076    0.0000 R   0  0  0  0  0  1  0  0  0  0  0  0
   -1.8614    0.4540    0.0000 C   0  0  0  0  0  0  0  0  0  0  0  0
   -2.9876    1.4449    0.0000 C   0  0  0  0  0  0  0  0  0  0  0  0
   -4.4088    0.9650    0.0000 C   0  0  0  0  0  0  0  0  0  0  0  0
   -5.5349    1.9559    0.0000 R   0  0  0  0  0  1  0  0  0  0  0  0
   -4.7038   -0.5057    0.0000 O   0  0  0  0  0  0  0  0  0  0  0  0
   -0.4403    0.9338    0.0000 C   0  0  0  0  0  0  0  0  0  0  0  0
    0.6859   -0.0571    0.0000 C   0  0  0  0  0  0  0  0  0  0  0  0
    0.3908   -1.5278    0.0000 C   0  0  0  0  0  0  0  0  0  0  0  0
    1.5169   -2.5187    0.0000 C   0  0  0  0  0  0  0  0  0  0  0  0
    2.9381   -2.0388    0.0000 C   0  0  0  0  0  0  0  0  0  0  0  0
    3.2332   -0.5681    0.0000 C   0  0  0  0  0  0  0  0  0  0  0  0
    4.6544   -0.0883    0.0000 C   0  0  0  0  0  0  0  0  0  0  0  0
    4.9494    1.3824    0.0000 C   0  0  0  0  0  0  0  0  0  0  0  0
    3.8233    2.3732    0.0000 C   0  0  0  0  0  0  0  0  0  0  0  0
    2.4021    1.8934    0.0000 C   0  0  0  0  0  0  0  0  0  0  0  0
    2.1071    0.4227    0.0000 C   0  0  0  0  0  0  0  0  0  0  0  0
  1  2  1  0
  2  3  1  0
  2  4  1  0
  4  5  1  1
  5  6  1  0
  6  7  1  0
  6  8  2  0
  4  9  1  0
  9 10  1  0
 10 11  2  0
 11 12  1  0
 12 13  2  0
 13 14  1  0
 14 15  2  0
 15 16  1  0
 16 17  2  0
 17 18  1  0
 18 19  2  0
 19 10  1  0
 19 14  1  0
M  ISO  3   1   1   3   3   7   2
M  END
>  <symbol>  (861) 
D_b3h1Nal

>  <m_abbr>  (861) 
D_b3h1Nal

>  <m_name>  (861) 
D-beta3-homo-1-naphthylalanine

>  <m_type>  (861) 
aa

>  <m_subtype>  (861) 
modified

>  <m_Rgroups>  (861) 
[H],[OH],[H]

>  <m_chem_types>  (861) 
1:backbone_n,2:backbone_c,3:backbone_n_mod

>  <m_activation_policy>  (861) 
canonical-sites-v1

$$$$

     RDKit          2D

 19 20  0  0  0  0  0  0  0  0999 V2000
   -2.7832    1.8851    0.0000 R   0  0  0  0  0  1  0  0  0  0  0  0
   -1.7609    0.7874    0.0000 N   0  0  0  0  0  0  0  0  0  0  0  0
   -0.2992    1.1238    0.0000 R   0  0  0  0  0  1  0  0  0  0  0  0
   -2.2005   -0.6468    0.0000 C   0  0  0  0  0  0  0  0  0  0  0  0
   -3.6623   -0.9832    0.0000 C   0  0  0  0  0  0  0  0  0  0  0  0
   -4.6845    0.1145    0.0000 C   0  0  0  0  0  0  0  0  0  0  0  0
   -6.1463   -0.2219    0.0000 R   0  0  0  0  0  1  0  0  0  0  0  0
   -4.2450    1.5487    0.0000 O   0  0  0  0  0  0  0  0  0  0  0  0
   -1.1782   -1.7445    0.0000 C   0  0  0  0  0  0  0  0  0  0  0  0
    0.2836   -1.4081    0.0000 C   0  0  0  0  0  0  0  0  0  0  0  0
    1.3058   -2.5058    0.0000 C   0  0  0  0  0  0  0  0  0  0  0  0
    2.7676   -2.1693    0.0000 C   0  0  0  0  0  0  0  0  0  0  0  0
    3.2071   -0.7352    0.0000 C   0  0  0  0  0  0  0  0  0  0  0  0
    4.6689   -0.3988    0.0000 C   0  0  0  0  0  0  0  0  0  0  0  0
    5.1084    1.0354    0.0000 C   0  0  0  0  0  0  0  0  0  0  0  0
    4.0862    2.1331    0.0000 C   0  0  0  0  0  0  0  0  0  0  0  0
    2.6244    1.7967    0.0000 C   0  0  0  0  0  0  0  0  0  0  0  0
    2.1849    0.3625    0.0000 C   0  0  0  0  0  0  0  0  0  0  0  0
    0.7231    0.0261    0.0000 C   0  0  0  0  0  0  0  0  0  0  0  0
  1  2  1  0
  2  3  1  0
  2  4  1  0
  4  5  1  6
  5  6  1  0
  6  7  1  0
  6  8  2  0
  4  9  1  0
  9 10  1  0
 10 11  1  0
 11 12  2  0
 12 13  1  0
 13 14  2  0
 14 15  1  0
 15 16  2  0
 16 17  1  0
 17 18  2  0
 18 19  1  0
 19 10  2  0
 18 13  1  0
M  ISO  3   1   1   3   3   7   2
M  END
>  <symbol>  (862) 
D_b3h2Nal

>  <m_abbr>  (862) 
D_b3h2Nal

>  <m_name>  (862) 
D-beta3-homo-2-naphthylalanine

>  <m_type>  (862) 
aa

>  <m_subtype>  (862) 
modified

>  <m_Rgroups>  (862) 
[H],[OH],[H]

>  <m_chem_types>  (862) 
1:backbone_n,2:backbone_c,3:backbone_n_mod

>  <m_activation_policy>  (862) 
canonical-sites-v1

$$$$

     RDKit          2D

 14 13  0  0  0  0  0  0  0  0999 V2000
   -0.9424   -2.4658    0.0000 R   0  0  0  0  0  1  0  0  0  0  0  0
    0.5056   -2.0741    0.0000 N   0  0  0  0  0  0  0  0  0  0  0  0
    1.5688   -3.1322    0.0000 R   0  0  0  0  0  1  0  0  0  0  0  0
    0.8903   -0.6243    0.0000 C   0  0  0  0  0  0  0  0  0  0  0  0
    2.3383   -0.2325    0.0000 C   0  0  0  0  0  0  0  0  0  0  0  0
    2.7230    1.2173    0.0000 C   0  0  0  0  0  0  0  0  0  0  0  0
    4.1710    1.6090    0.0000 R   0  0  0  0  0  1  0  0  0  0  0  0
    1.6598    2.2754    0.0000 O   0  0  0  0  0  0  0  0  0  0  0  0
   -0.1729    0.4339    0.0000 C   0  0  0  0  0  0  0  0  0  0  0  0
   -1.6208    0.0421    0.0000 C   0  0  0  0  0  0  0  0  0  0  0  0
   -2.0056   -1.4077    0.0000 O   0  0  0  0  0  0  0  0  0  0  0  0
   -2.6840    1.1002    0.0000 N   0  0  0  0  0  0  0  0  0  0  0  0
   -4.1320    0.7085    0.0000 R   0  0  0  0  0  1  0  0  0  0  0  0
   -2.2993    2.5501    0.0000 R   0  0  0  0  0  1  0  0  0  0  0  0
  1  2  1  0
  2  3  1  0
  2  4  1  0
  4  5  1  6
  5  6  1  0
  6  7  1  0
  6  8  2  0
  4  9  1  0
  9 10  1  0
 10 11  2  0
 10 12  1  0
 12 13  1  0
 12 14  1  0
M  ISO  5   1   1   3   3   7   2  13   4  14   5
M  END
>  <symbol>  (863) 
D_b3hAsn

>  <m_abbr>  (863) 
D_b3hAsn

>  <m_name>  (863) 
D-beta3-homoasparagine

>  <m_type>  (863) 
aa

>  <m_subtype>  (863) 
modified

>  <m_Rgroups>  (863) 
[H],[OH],[H],[H],[H]

>  <m_chem_types>  (863) 
1:backbone_n,2:backbone_c,3:backbone_n_mod,4:amide_nh,5:amide_nh

>  <m_activation_policy>  (863) 
canonical-sites-v1

$$$$

     RDKit          2D

 15 14  0  0  0  0  0  0  0  0999 V2000
   -4.5037   -0.1907    0.0000 R   0  0  0  0  0  1  0  0  0  0  0  0
   -3.2062   -0.9434    0.0000 N   0  0  0  0  0  0  0  0  0  0  0  0
   -3.2093   -2.4434    0.0000 R   0  0  0  0  0  1  0  0  0  0  0  0
   -1.9057   -0.1961    0.0000 C   0  0  0  0  0  0  0  0  0  0  0  0
   -0.6082   -0.9488    0.0000 C   0  0  0  0  0  0  0  0  0  0  0  0
    0.6924   -0.2014    0.0000 C   0  0  0  0  0  0  0  0  0  0  0  0
    1.9899   -0.9541    0.0000 C   0  0  0  0  0  0  0  0  0  0  0  0
    1.9868   -2.4541    0.0000 O   0  0  0  0  0  0  0  0  0  0  0  0
    3.2905   -0.2068    0.0000 N   0  0  0  0  0  0  0  0  0  0  0  0
    4.5880   -0.9594    0.0000 R   0  0  0  0  0  1  0  0  0  0  0  0
    3.2936    1.2932    0.0000 R   0  0  0  0  0  1  0  0  0  0  0  0
   -1.9026    1.3039    0.0000 C   0  0  0  0  0  0  0  0  0  0  0  0
   -0.6020    2.0512    0.0000 C   0  0  0  0  0  0  0  0  0  0  0  0
   -0.5989    3.5512    0.0000 R   0  0  0  0  0  1  0  0  0  0  0  0
    0.6955    1.2986    0.0000 O   0  0  0  0  0  0  0  0  0  0  0  0
  1  2  1  0
  2  3  1  0
  2  4  1  0
  4  5  1  1
  5  6  1  0
  6  7  1  0
  7  8  2  0
  7  9  1  0
  9 10  1  0
  9 11  1  0
  4 12  1  0
 12 13  1  0
 13 14  1  0
 13 15  2  0
M  ISO  5   1   1   3   3  10   4  11   5  14   2
M  END
>  <symbol>  (864) 
D_b3hGln

>  <m_abbr>  (864) 
D_b3hGln

>  <m_name>  (864) 
D-beta3-homoglutamine

>  <m_type>  (864) 
aa

>  <m_subtype>  (864) 
modified

>  <m_Rgroups>  (864) 
[H],[OH],[H],[H],[H]

>  <m_chem_types>  (864) 
1:backbone_n,2:backbone_c,3:backbone_n_mod,4:amide_nh,5:amide_nh

>  <m_activation_policy>  (864) 
canonical-sites-v1

$$$$

     RDKit          2D

 15 15  0  0  0  0  0  0  0  0999 V2000
   -2.2888    1.7292    0.0000 R   0  0  0  0  0  1  0  0  0  0  0  0
   -0.9588    1.0356    0.0000 N   0  0  0  0  0  0  0  0  0  0  0  0
    0.3068    1.8407    0.0000 R   0  0  0  0  0  1  0  0  0  0  0  0
   -0.8945   -0.4630    0.0000 C   0  0  0  0  0  0  0  0  0  0  0  0
   -2.1601   -1.2680    0.0000 C   0  0  0  0  0  0  0  0  0  0  0  0
   -3.4901   -0.5744    0.0000 C   0  0  0  0  0  0  0  0  0  0  0  0
   -4.7558   -1.3795    0.0000 R   0  0  0  0  0  1  0  0  0  0  0  0
   -3.5545    0.9242    0.0000 O   0  0  0  0  0  0  0  0  0  0  0  0
    0.4356   -1.1566    0.0000 C   0  0  0  0  0  0  0  0  0  0  0  0
    1.7012   -0.3515    0.0000 C   0  0  0  0  0  0  0  0  0  0  0  0
    1.7939    1.1456    0.0000 C   0  0  0  0  0  0  0  0  0  0  0  0
    3.2464    1.5202    0.0000 N   0  0  0  0  0  0  0  0  0  0  0  0
    4.0514    0.2545    0.0000 C   0  0  0  0  0  0  0  0  0  0  0  0
    3.0965   -0.9023    0.0000 N   0  0  0  0  0  0  0  0  0  0  0  0
    3.4710   -2.3547    0.0000 R   0  0  0  0  0  1  0  0  0  0  0  0
  1  2  1  0
  2  3  1  0
  2  4  1  0
  4  5  1  6
  5  6  1  0
  6  7  1  0
  6  8  2  0
  4  9  1  0
  9 10  1  0
 10 11  2  0
 11 12  1  0
 12 13  2  0
 13 14  1  0
 14 15  1  0
 14 10  1  0
M  ISO  4   1   1   3   3   7   2  15   4
M  END
>  <symbol>  (865) 
D_b3hHis

>  <m_abbr>  (865) 
D_b3hHis

>  <m_name>  (865) 
D-beta3-homohistidine

>  <m_type>  (865) 
aa

>  <m_subtype>  (865) 
modified

>  <m_Rgroups>  (865) 
[H],[OH],[H],[H]

>  <m_chem_types>  (865) 
1:backbone_n,2:backbone_c,3:backbone_n_mod,4:aromatic_nh

>  <m_activation_policy>  (865) 
canonical-sites-v1

$$$$

     RDKit          2D

 17 17  0  0  0  0  0  0  0  0999 V2000
   -2.6968    1.8652    0.0000 R   0  0  0  0  0  1  0  0  0  0  0  0
   -1.5480    0.9006    0.0000 N   0  0  0  0  0  0  0  0  0  0  0  0
   -0.1384    1.4133    0.0000 R   0  0  0  0  0  1  0  0  0  0  0  0
   -1.8090   -0.5765    0.0000 C   0  0  0  0  0  0  0  0  0  0  0  0
   -3.2186   -1.0891    0.0000 C   0  0  0  0  0  0  0  0  0  0  0  0
   -4.3674   -0.1246    0.0000 C   0  0  0  0  0  0  0  0  0  0  0  0
   -5.7771   -0.6372    0.0000 R   0  0  0  0  0  1  0  0  0  0  0  0
   -4.1065    1.3526    0.0000 O   0  0  0  0  0  0  0  0  0  0  0  0
   -0.6602   -1.5410    0.0000 C   0  0  0  0  0  0  0  0  0  0  0  0
    0.7495   -1.0284    0.0000 C   0  0  0  0  0  0  0  0  0  0  0  0
    1.0104    0.4487    0.0000 C   0  0  0  0  0  0  0  0  0  0  0  0
    2.4201    0.9613    0.0000 C   0  0  0  0  0  0  0  0  0  0  0  0
    3.5689   -0.0032    0.0000 C   0  0  0  0  0  0  0  0  0  0  0  0
    4.9786    0.5094    0.0000 C   0  0  0  0  0  0  0  0  0  0  0  0
    6.3883    1.0220    0.0000 N   0  0  0  0  0  0  0  0  0  0  0  0
    3.3080   -1.4803    0.0000 C   0  0  0  0  0  0  0  0  0  0  0  0
    1.8983   -1.9929    0.0000 C   0  0  0  0  0  0  0  0  0  0  0  0
  1  2  1  0
  2  3  1  0
  2  4  1  0
  4  5  1  1
  5  6  1  0
  6  7  1  0
  6  8  2  0
  4  9  1  0
  9 10  1  0
 10 11  1  0
 11 12  2  0
 12 13  1  0
 13 14  1  0
 14 15  3  0
 13 16  2  0
 16 17  1  0
 17 10  2  0
M  ISO  3   1   1   3   3   7   2
M  END
>  <symbol>  (866) 
b3hPhe_4CN

>  <m_abbr>  (866) 
b3hPhe_4CN

>  <m_name>  (866) 
L-beta3-homo-4-cyanophenylalanine

>  <m_type>  (866) 
aa

>  <m_subtype>  (866) 
modified

>  <m_Rgroups>  (866) 
[H],[OH],[H]

>  <m_chem_types>  (866) 
1:backbone_n,2:backbone_c,3:backbone_n_mod

>  <m_activation_policy>  (866) 
canonical-sites-v1

$$$$

     RDKit          2D

 17 17  0  0  0  0  0  0  0  0999 V2000
   -2.6968    1.8652    0.0000 R   0  0  0  0  0  1  0  0  0  0  0  0
   -1.5480    0.9006    0.0000 N   0  0  0  0  0  0  0  0  0  0  0  0
   -0.1384    1.4133    0.0000 R   0  0  0  0  0  1  0  0  0  0  0  0
   -1.8090   -0.5765    0.0000 C   0  0  0  0  0  0  0  0  0  0  0  0
   -3.2186   -1.0891    0.0000 C   0  0  0  0  0  0  0  0  0  0  0  0
   -4.3674   -0.1246    0.0000 C   0  0  0  0  0  0  0  0  0  0  0  0
   -5.7771   -0.6372    0.0000 R   0  0  0  0  0  1  0  0  0  0  0  0
   -4.1065    1.3526    0.0000 O   0  0  0  0  0  0  0  0  0  0  0  0
   -0.6602   -1.5410    0.0000 C   0  0  0  0  0  0  0  0  0  0  0  0
    0.7495   -1.0284    0.0000 C   0  0  0  0  0  0  0  0  0  0  0  0
    1.0104    0.4487    0.0000 C   0  0  0  0  0  0  0  0  0  0  0  0
    2.4201    0.9613    0.0000 C   0  0  0  0  0  0  0  0  0  0  0  0
    3.5689   -0.0032    0.0000 C   0  0  0  0  0  0  0  0  0  0  0  0
    4.9786    0.5094    0.0000 C   0  0  0  0  0  0  0  0  0  0  0  0
    6.3883    1.0220    0.0000 N   0  0  0  0  0  0  0  0  0  0  0  0
    3.3080   -1.4803    0.0000 C   0  0  0  0  0  0  0  0  0  0  0  0
    1.8983   -1.9929    0.0000 C   0  0  0  0  0  0  0  0  0  0  0  0
  1  2  1  0
  2  3  1  0
  2  4  1  0
  4  5  1  6
  5  6  1  0
  6  7  1  0
  6  8  2  0
  4  9  1  0
  9 10  1  0
 10 11  1  0
 11 12  2  0
 12 13  1  0
 13 14  1  0
 14 15  3  0
 13 16  2  0
 16 17  1  0
 17 10  2  0
M  ISO  3   1   1   3   3   7   2
M  END
>  <symbol>  (867) 
D_b3hPhe_4CN

>  <m_abbr>  (867) 
D_b3hPhe_4CN

>  <m_name>  (867) 
D-beta3-homo-4-cyanophenylalanine

>  <m_type>  (867) 
aa

>  <m_subtype>  (867) 
modified

>  <m_Rgroups>  (867) 
[H],[OH],[H]

>  <m_chem_types>  (867) 
1:backbone_n,2:backbone_c,3:backbone_n_mod

>  <m_activation_policy>  (867) 
canonical-sites-v1

$$$$

     RDKit          2D

 19 19  0  0  0  0  0  0  0  0999 V2000
   -3.1941    1.8584    0.0000 R   0  0  0  0  0  1  0  0  0  0  0  0
   -2.0595    0.8772    0.0000 N   0  0  0  0  0  0  0  0  0  0  0  0
   -0.6425    1.3692    0.0000 R   0  0  0  0  0  1  0  0  0  0  0  0
   -2.3420   -0.5960    0.0000 C   0  0  0  0  0  0  0  0  0  0  0  0
   -3.7590   -1.0879    0.0000 C   0  0  0  0  0  0  0  0  0  0  0  0
   -4.8936   -0.1068    0.0000 C   0  0  0  0  0  0  0  0  0  0  0  0
   -6.3106   -0.5987    0.0000 R   0  0  0  0  0  1  0  0  0  0  0  0
   -4.6111    1.3664    0.0000 O   0  0  0  0  0  0  0  0  0  0  0  0
   -1.2074   -1.5772    0.0000 C   0  0  0  0  0  0  0  0  0  0  0  0
    0.2096   -1.0852    0.0000 C   0  0  0  0  0  0  0  0  0  0  0  0
    0.4921    0.3880    0.0000 C   0  0  0  0  0  0  0  0  0  0  0  0
    1.9091    0.8799    0.0000 C   0  0  0  0  0  0  0  0  0  0  0  0
    3.0437   -0.1013    0.0000 C   0  0  0  0  0  0  0  0  0  0  0  0
    4.4607    0.3907    0.0000 C   0  0  0  0  0  0  0  0  0  0  0  0
    5.8777    0.8827    0.0000 F   0  0  0  0  0  0  0  0  0  0  0  0
    4.9527   -1.0263    0.0000 F   0  0  0  0  0  0  0  0  0  0  0  0
    3.9687    1.8077    0.0000 F   0  0  0  0  0  0  0  0  0  0  0  0
    2.7612   -1.5744    0.0000 C   0  0  0  0  0  0  0  0  0  0  0  0
    1.3442   -2.0664    0.0000 C   0  0  0  0  0  0  0  0  0  0  0  0
  1  2  1  0
  2  3  1  0
  2  4  1  0
  4  5  1  1
  5  6  1  0
  6  7  1  0
  6  8  2  0
  4  9  1  0
  9 10  1  0
 10 11  1  0
 11 12  2  0
 12 13  1  0
 13 14  1  0
 14 15  1  0
 14 16  1  0
 14 17  1  0
 13 18  2  0
 18 19  1  0
 19 10  2  0
M  ISO  3   1   1   3   3   7   2
M  END
>  <symbol>  (868) 
b3hPhe_4CF3

>  <m_abbr>  (868) 
b3hPhe_4CF3

>  <m_name>  (868) 
L-beta3-homo-4-(trifluoromethyl)phenylalanine

>  <m_type>  (868) 
aa

>  <m_subtype>  (868) 
modified

>  <m_Rgroups>  (868) 
[H],[OH],[H]

>  <m_chem_types>  (868) 
1:backbone_n,2:backbone_c,3:backbone_n_mod

>  <m_activation_policy>  (868) 
canonical-sites-v1

$$$$

     RDKit          2D

 19 19  0  0  0  0  0  0  0  0999 V2000
   -3.1941    1.8584    0.0000 R   0  0  0  0  0  1  0  0  0  0  0  0
   -2.0595    0.8772    0.0000 N   0  0  0  0  0  0  0  0  0  0  0  0
   -0.6425    1.3692    0.0000 R   0  0  0  0  0  1  0  0  0  0  0  0
   -2.3420   -0.5960    0.0000 C   0  0  0  0  0  0  0  0  0  0  0  0
   -3.7590   -1.0879    0.0000 C   0  0  0  0  0  0  0  0  0  0  0  0
   -4.8936   -0.1068    0.0000 C   0  0  0  0  0  0  0  0  0  0  0  0
   -6.3106   -0.5987    0.0000 R   0  0  0  0  0  1  0  0  0  0  0  0
   -4.6111    1.3664    0.0000 O   0  0  0  0  0  0  0  0  0  0  0  0
   -1.2074   -1.5772    0.0000 C   0  0  0  0  0  0  0  0  0  0  0  0
    0.2096   -1.0852    0.0000 C   0  0  0  0  0  0  0  0  0  0  0  0
    0.4921    0.3880    0.0000 C   0  0  0  0  0  0  0  0  0  0  0  0
    1.9091    0.8799    0.0000 C   0  0  0  0  0  0  0  0  0  0  0  0
    3.0437   -0.1013    0.0000 C   0  0  0  0  0  0  0  0  0  0  0  0
    4.4607    0.3907    0.0000 C   0  0  0  0  0  0  0  0  0  0  0  0
    5.8777    0.8827    0.0000 F   0  0  0  0  0  0  0  0  0  0  0  0
    4.9527   -1.0263    0.0000 F   0  0  0  0  0  0  0  0  0  0  0  0
    3.9687    1.8077    0.0000 F   0  0  0  0  0  0  0  0  0  0  0  0
    2.7612   -1.5744    0.0000 C   0  0  0  0  0  0  0  0  0  0  0  0
    1.3442   -2.0664    0.0000 C   0  0  0  0  0  0  0  0  0  0  0  0
  1  2  1  0
  2  3  1  0
  2  4  1  0
  4  5  1  6
  5  6  1  0
  6  7  1  0
  6  8  2  0
  4  9  1  0
  9 10  1  0
 10 11  1  0
 11 12  2  0
 12 13  1  0
 13 14  1  0
 14 15  1  0
 14 16  1  0
 14 17  1  0
 13 18  2  0
 18 19  1  0
 19 10  2  0
M  ISO  3   1   1   3   3   7   2
M  END
>  <symbol>  (869) 
D_b3hPhe_4CF3

>  <m_abbr>  (869) 
D_b3hPhe_4CF3

>  <m_name>  (869) 
D-beta3-homo-4-(trifluoromethyl)phenylalanine

>  <m_type>  (869) 
aa

>  <m_subtype>  (869) 
modified

>  <m_Rgroups>  (869) 
[H],[OH],[H]

>  <m_chem_types>  (869) 
1:backbone_n,2:backbone_c,3:backbone_n_mod

>  <m_activation_policy>  (869) 
canonical-sites-v1

$$$$

     RDKit          2D

 16 16  0  0  0  0  0  0  0  0999 V2000
   -2.3975    1.8033    0.0000 R   0  0  0  0  0  1  0  0  0  0  0  0
   -1.1988    0.9017    0.0000 N   0  0  0  0  0  0  0  0  0  0  0  0
    0.1815    1.4890    0.0000 R   0  0  0  0  0  1  0  0  0  0  0  0
   -1.3802   -0.5873    0.0000 C   0  0  0  0  0  0  0  0  0  0  0  0
   -2.7605   -1.1747    0.0000 C   0  0  0  0  0  0  0  0  0  0  0  0
   -3.9592   -0.2730    0.0000 C   0  0  0  0  0  0  0  0  0  0  0  0
   -5.3395   -0.8603    0.0000 R   0  0  0  0  0  1  0  0  0  0  0  0
   -3.7777    1.2160    0.0000 O   0  0  0  0  0  0  0  0  0  0  0  0
   -0.1815   -1.4890    0.0000 C   0  0  0  0  0  0  0  0  0  0  0  0
    1.1988   -0.9017    0.0000 C   0  0  0  0  0  0  0  0  0  0  0  0
    1.3802    0.5873    0.0000 C   0  0  0  0  0  0  0  0  0  0  0  0
    2.7605    1.1747    0.0000 C   0  0  0  0  0  0  0  0  0  0  0  0
    3.9592    0.2730    0.0000 C   0  0  0  0  0  0  0  0  0  0  0  0
    5.3395    0.8603    0.0000 C   0  0  0  0  0  0  0  0  0  0  0  0
    3.7777   -1.2160    0.0000 C   0  0  0  0  0  0  0  0  0  0  0  0
    2.3975   -1.8033    0.0000 C   0  0  0  0  0  0  0  0  0  0  0  0
  1  2  1  0
  2  3  1  0
  2  4  1  0
  4  5  1  1
  5  6  1  0
  6  7  1  0
  6  8  2  0
  4  9  1  0
  9 10  1  0
 10 11  1  0
 11 12  2  0
 12 13  1  0
 13 14  1  0
 13 15  2  0
 15 16  1  0
 16 10  2  0
M  ISO  3   1   1   3   3   7   2
M  END
>  <symbol>  (870) 
b3hPhe_4Me

>  <m_abbr>  (870) 
b3hPhe_4Me

>  <m_name>  (870) 
L-beta3-homo-4-methylphenylalanine

>  <m_type>  (870) 
aa

>  <m_subtype>  (870) 
modified

>  <m_Rgroups>  (870) 
[H],[OH],[H]

>  <m_chem_types>  (870) 
1:backbone_n,2:backbone_c,3:backbone_n_mod

>  <m_activation_policy>  (870) 
canonical-sites-v1

$$$$

     RDKit          2D

 16 16  0  0  0  0  0  0  0  0999 V2000
   -2.3975    1.8033    0.0000 R   0  0  0  0  0  1  0  0  0  0  0  0
   -1.1988    0.9017    0.0000 N   0  0  0  0  0  0  0  0  0  0  0  0
    0.1815    1.4890    0.0000 R   0  0  0  0  0  1  0  0  0  0  0  0
   -1.3802   -0.5873    0.0000 C   0  0  0  0  0  0  0  0  0  0  0  0
   -2.7605   -1.1747    0.0000 C   0  0  0  0  0  0  0  0  0  0  0  0
   -3.9592   -0.2730    0.0000 C   0  0  0  0  0  0  0  0  0  0  0  0
   -5.3395   -0.8603    0.0000 R   0  0  0  0  0  1  0  0  0  0  0  0
   -3.7777    1.2160    0.0000 O   0  0  0  0  0  0  0  0  0  0  0  0
   -0.1815   -1.4890    0.0000 C   0  0  0  0  0  0  0  0  0  0  0  0
    1.1988   -0.9017    0.0000 C   0  0  0  0  0  0  0  0  0  0  0  0
    1.3802    0.5873    0.0000 C   0  0  0  0  0  0  0  0  0  0  0  0
    2.7605    1.1747    0.0000 C   0  0  0  0  0  0  0  0  0  0  0  0
    3.9592    0.2730    0.0000 C   0  0  0  0  0  0  0  0  0  0  0  0
    5.3395    0.8603    0.0000 C   0  0  0  0  0  0  0  0  0  0  0  0
    3.7777   -1.2160    0.0000 C   0  0  0  0  0  0  0  0  0  0  0  0
    2.3975   -1.8033    0.0000 C   0  0  0  0  0  0  0  0  0  0  0  0
  1  2  1  0
  2  3  1  0
  2  4  1  0
  4  5  1  6
  5  6  1  0
  6  7  1  0
  6  8  2  0
  4  9  1  0
  9 10  1  0
 10 11  1  0
 11 12  2  0
 12 13  1  0
 13 14  1  0
 13 15  2  0
 15 16  1  0
 16 10  2  0
M  ISO  3   1   1   3   3   7   2
M  END
>  <symbol>  (871) 
D_b3hPhe_4Me

>  <m_abbr>  (871) 
D_b3hPhe_4Me

>  <m_name>  (871) 
D-beta3-homo-4-methylphenylalanine

>  <m_type>  (871) 
aa

>  <m_subtype>  (871) 
modified

>  <m_Rgroups>  (871) 
[H],[OH],[H]

>  <m_chem_types>  (871) 
1:backbone_n,2:backbone_c,3:backbone_n_mod

>  <m_activation_policy>  (871) 
canonical-sites-v1

$$$$

     RDKit          2D

 18 18  0  0  0  0  0  0  0  0999 V2000
   -2.9642    1.8516    0.0000 R   0  0  0  0  0  1  0  0  0  0  0  0
   -1.8203    0.8814    0.0000 N   0  0  0  0  0  0  0  0  0  0  0  0
   -0.4081    1.3870    0.0000 R   0  0  0  0  0  1  0  0  0  0  0  0
   -2.0885   -0.5944    0.0000 C   0  0  0  0  0  0  0  0  0  0  0  0
   -3.5008   -1.1000    0.0000 C   0  0  0  0  0  0  0  0  0  0  0  0
   -4.6447   -0.1298    0.0000 C   0  0  0  0  0  0  0  0  0  0  0  0
   -6.0569   -0.6354    0.0000 R   0  0  0  0  0  1  0  0  0  0  0  0
   -4.3765    1.3460    0.0000 O   0  0  0  0  0  0  0  0  0  0  0  0
   -0.9446   -1.5646    0.0000 C   0  0  0  0  0  0  0  0  0  0  0  0
    0.4677   -1.0590    0.0000 C   0  0  0  0  0  0  0  0  0  0  0  0
    0.7359    0.4168    0.0000 C   0  0  0  0  0  0  0  0  0  0  0  0
    2.1481    0.9224    0.0000 C   0  0  0  0  0  0  0  0  0  0  0  0
    3.2921   -0.0479    0.0000 C   0  0  0  0  0  0  0  0  0  0  0  0
    4.7043    0.4577    0.0000 N   0  0  0  0  0  0  0  0  0  0  0  0
    4.9726    1.9336    0.0000 O   0  0  0  0  0  0  0  0  0  0  0  0
    5.8483   -0.5125    0.0000 O   0  0  0  0  0  0  0  0  0  0  0  0
    3.0239   -1.5237    0.0000 C   0  0  0  0  0  0  0  0  0  0  0  0
    1.6116   -2.0293    0.0000 C   0  0  0  0  0  0  0  0  0  0  0  0
  1  2  1  0
  2  3  1  0
  2  4  1  0
  4  5  1  1
  5  6  1  0
  6  7  1  0
  6  8  2  0
  4  9  1  0
  9 10  1  0
 10 11  1  0
 11 12  2  0
 12 13  1  0
 13 14  1  0
 14 15  2  0
 14 16  1  0
 13 17  2  0
 17 18  1  0
 18 10  2  0
M  CHG  2  14   1  16  -1
M  ISO  3   1   1   3   3   7   2
M  END
>  <symbol>  (872) 
b3hPhe_4NO2

>  <m_abbr>  (872) 
b3hPhe_4NO2

>  <m_name>  (872) 
L-beta3-homo-4-nitrophenylalanine

>  <m_type>  (872) 
aa

>  <m_subtype>  (872) 
modified

>  <m_Rgroups>  (872) 
[H],[OH],[H]

>  <m_chem_types>  (872) 
1:backbone_n,2:backbone_c,3:backbone_n_mod

>  <m_activation_policy>  (872) 
canonical-sites-v1

$$$$

     RDKit          2D

 18 18  0  0  0  0  0  0  0  0999 V2000
   -2.9642    1.8516    0.0000 R   0  0  0  0  0  1  0  0  0  0  0  0
   -1.8203    0.8814    0.0000 N   0  0  0  0  0  0  0  0  0  0  0  0
   -0.4081    1.3870    0.0000 R   0  0  0  0  0  1  0  0  0  0  0  0
   -2.0885   -0.5944    0.0000 C   0  0  0  0  0  0  0  0  0  0  0  0
   -3.5008   -1.1000    0.0000 C   0  0  0  0  0  0  0  0  0  0  0  0
   -4.6447   -0.1298    0.0000 C   0  0  0  0  0  0  0  0  0  0  0  0
   -6.0569   -0.6354    0.0000 R   0  0  0  0  0  1  0  0  0  0  0  0
   -4.3765    1.3460    0.0000 O   0  0  0  0  0  0  0  0  0  0  0  0
   -0.9446   -1.5646    0.0000 C   0  0  0  0  0  0  0  0  0  0  0  0
    0.4677   -1.0590    0.0000 C   0  0  0  0  0  0  0  0  0  0  0  0
    0.7359    0.4168    0.0000 C   0  0  0  0  0  0  0  0  0  0  0  0
    2.1481    0.9224    0.0000 C   0  0  0  0  0  0  0  0  0  0  0  0
    3.2921   -0.0479    0.0000 C   0  0  0  0  0  0  0  0  0  0  0  0
    4.7043    0.4577    0.0000 N   0  0  0  0  0  0  0  0  0  0  0  0
    4.9726    1.9336    0.0000 O   0  0  0  0  0  0  0  0  0  0  0  0
    5.8483   -0.5125    0.0000 O   0  0  0  0  0  0  0  0  0  0  0  0
    3.0239   -1.5237    0.0000 C   0  0  0  0  0  0  0  0  0  0  0  0
    1.6116   -2.0293    0.0000 C   0  0  0  0  0  0  0  0  0  0  0  0
  1  2  1  0
  2  3  1  0
  2  4  1  0
  4  5  1  6
  5  6  1  0
  6  7  1  0
  6  8  2  0
  4  9  1  0
  9 10  1  0
 10 11  1  0
 11 12  2  0
 12 13  1  0
 13 14  1  0
 14 15  2  0
 14 16  1  0
 13 17  2  0
 17 18  1  0
 18 10  2  0
M  CHG  2  14   1  16  -1
M  ISO  3   1   1   3   3   7   2
M  END
>  <symbol>  (873) 
D_b3hPhe_4NO2

>  <m_abbr>  (873) 
D_b3hPhe_4NO2

>  <m_name>  (873) 
D-beta3-homo-4-nitrophenylalanine

>  <m_type>  (873) 
aa

>  <m_subtype>  (873) 
modified

>  <m_Rgroups>  (873) 
[H],[OH],[H]

>  <m_chem_types>  (873) 
1:backbone_n,2:backbone_c,3:backbone_n_mod

>  <m_activation_policy>  (873) 
canonical-sites-v1

$$$$

     RDKit          2D

 18 18  0  0  0  0  0  0  0  0999 V2000
   -2.9642    1.8516    0.0000 R   0  0  0  0  0  1  0  0  0  0  0  0
   -1.8203    0.8814    0.0000 N   0  0  0  0  0  0  0  0  0  0  0  0
   -0.4081    1.3870    0.0000 R   0  0  0  0  0  1  0  0  0  0  0  0
   -2.0885   -0.5944    0.0000 C   0  0  0  0  0  0  0  0  0  0  0  0
   -3.5008   -1.1000    0.0000 C   0  0  0  0  0  0  0  0  0  0  0  0
   -4.6447   -0.1298    0.0000 C   0  0  0  0  0  0  0  0  0  0  0  0
   -6.0569   -0.6354    0.0000 R   0  0  0  0  0  1  0  0  0  0  0  0
   -4.3765    1.3460    0.0000 O   0  0  0  0  0  0  0  0  0  0  0  0
   -0.9446   -1.5646    0.0000 C   0  0  0  0  0  0  0  0  0  0  0  0
    0.4677   -1.0590    0.0000 C   0  0  0  0  0  0  0  0  0  0  0  0
    0.7359    0.4168    0.0000 C   0  0  0  0  0  0  0  0  0  0  0  0
    2.1481    0.9224    0.0000 C   0  0  0  0  0  0  0  0  0  0  0  0
    3.2921   -0.0479    0.0000 C   0  0  0  0  0  0  0  0  0  0  0  0
    4.7043    0.4577    0.0000 N   0  0  0  0  0  0  0  0  0  0  0  0
    5.8483   -0.5125    0.0000 R   0  0  0  0  0  1  0  0  0  0  0  0
    4.9726    1.9336    0.0000 R   0  0  0  0  0  1  0  0  0  0  0  0
    3.0239   -1.5237    0.0000 C   0  0  0  0  0  0  0  0  0  0  0  0
    1.6116   -2.0293    0.0000 C   0  0  0  0  0  0  0  0  0  0  0  0
  1  2  1  0
  2  3  1  0
  2  4  1  0
  4  5  1  1
  5  6  1  0
  6  7  1  0
  6  8  2  0
  4  9  1  0
  9 10  1  0
 10 11  1  0
 11 12  2  0
 12 13  1  0
 13 14  1  0
 14 15  1  0
 14 16  1  0
 13 17  2  0
 17 18  1  0
 18 10  2  0
M  ISO  5   1   1   3   3   7   2  15   4  16   5
M  END
>  <symbol>  (874) 
b3hPhe_4NH2

>  <m_abbr>  (874) 
b3hPhe_4NH2

>  <m_name>  (874) 
L-beta3-homo-4-aminophenylalanine

>  <m_type>  (874) 
aa

>  <m_subtype>  (874) 
modified

>  <m_Rgroups>  (874) 
[H],[OH],[H],[H],[H]

>  <m_chem_types>  (874) 
1:backbone_n,2:backbone_c,3:backbone_n_mod,4:amine_primary,5:amine_primary

>  <m_activation_policy>  (874) 
canonical-sites-v1

$$$$

     RDKit          2D

 18 18  0  0  0  0  0  0  0  0999 V2000
   -2.9642    1.8516    0.0000 R   0  0  0  0  0  1  0  0  0  0  0  0
   -1.8203    0.8814    0.0000 N   0  0  0  0  0  0  0  0  0  0  0  0
   -0.4081    1.3870    0.0000 R   0  0  0  0  0  1  0  0  0  0  0  0
   -2.0885   -0.5944    0.0000 C   0  0  0  0  0  0  0  0  0  0  0  0
   -3.5008   -1.1000    0.0000 C   0  0  0  0  0  0  0  0  0  0  0  0
   -4.6447   -0.1298    0.0000 C   0  0  0  0  0  0  0  0  0  0  0  0
   -6.0569   -0.6354    0.0000 R   0  0  0  0  0  1  0  0  0  0  0  0
   -4.3765    1.3460    0.0000 O   0  0  0  0  0  0  0  0  0  0  0  0
   -0.9446   -1.5646    0.0000 C   0  0  0  0  0  0  0  0  0  0  0  0
    0.4677   -1.0590    0.0000 C   0  0  0  0  0  0  0  0  0  0  0  0
    0.7359    0.4168    0.0000 C   0  0  0  0  0  0  0  0  0  0  0  0
    2.1481    0.9224    0.0000 C   0  0  0  0  0  0  0  0  0  0  0  0
    3.2921   -0.0479    0.0000 C   0  0  0  0  0  0  0  0  0  0  0  0
    4.7043    0.4577    0.0000 N   0  0  0  0  0  0  0  0  0  0  0  0
    5.8483   -0.5125    0.0000 R   0  0  0  0  0  1  0  0  0  0  0  0
    4.9726    1.9336    0.0000 R   0  0  0  0  0  1  0  0  0  0  0  0
    3.0239   -1.5237    0.0000 C   0  0  0  0  0  0  0  0  0  0  0  0
    1.6116   -2.0293    0.0000 C   0  0  0  0  0  0  0  0  0  0  0  0
  1  2  1  0
  2  3  1  0
  2  4  1  0
  4  5  1  6
  5  6  1  0
  6  7  1  0
  6  8  2  0
  4  9  1  0
  9 10  1  0
 10 11  1  0
 11 12  2  0
 12 13  1  0
 13 14  1  0
 14 15  1  0
 14 16  1  0
 13 17  2  0
 17 18  1  0
 18 10  2  0
M  ISO  5   1   1   3   3   7   2  15   4  16   5
M  END
>  <symbol>  (875) 
D_b3hPhe_4NH2

>  <m_abbr>  (875) 
D_b3hPhe_4NH2

>  <m_name>  (875) 
D-beta3-homo-4-aminophenylalanine

>  <m_type>  (875) 
aa

>  <m_subtype>  (875) 
modified

>  <m_Rgroups>  (875) 
[H],[OH],[H],[H],[H]

>  <m_chem_types>  (875) 
1:backbone_n,2:backbone_c,3:backbone_n_mod,4:amine_primary,5:amine_primary

>  <m_activation_policy>  (875) 
canonical-sites-v1

$$$$

     RDKit          2D

 16 16  0  0  0  0  0  0  0  0999 V2000
   -2.3975    1.8033    0.0000 R   0  0  0  0  0  1  0  0  0  0  0  0
   -1.1988    0.9017    0.0000 N   0  0  0  0  0  0  0  0  0  0  0  0
    0.1815    1.4890    0.0000 R   0  0  0  0  0  1  0  0  0  0  0  0
   -1.3802   -0.5873    0.0000 C   0  0  0  0  0  0  0  0  0  0  0  0
   -2.7605   -1.1747    0.0000 C   0  0  0  0  0  0  0  0  0  0  0  0
   -3.9592   -0.2730    0.0000 C   0  0  0  0  0  0  0  0  0  0  0  0
   -5.3395   -0.8603    0.0000 R   0  0  0  0  0  1  0  0  0  0  0  0
   -3.7777    1.2160    0.0000 O   0  0  0  0  0  0  0  0  0  0  0  0
   -0.1815   -1.4890    0.0000 C   0  0  0  0  0  0  0  0  0  0  0  0
    1.1988   -0.9017    0.0000 C   0  0  0  0  0  0  0  0  0  0  0  0
    1.3802    0.5873    0.0000 C   0  0  0  0  0  0  0  0  0  0  0  0
    2.7605    1.1747    0.0000 C   0  0  0  0  0  0  0  0  0  0  0  0
    3.9592    0.2730    0.0000 C   0  0  0  0  0  0  0  0  0  0  0  0
    5.3395    0.8603    0.0000 I   0  0  0  0  0  0  0  0  0  0  0  0
    3.7777   -1.2160    0.0000 C   0  0  0  0  0  0  0  0  0  0  0  0
    2.3975   -1.8033    0.0000 C   0  0  0  0  0  0  0  0  0  0  0  0
  1  2  1  0
  2  3  1  0
  2  4  1  0
  4  5  1  1
  5  6  1  0
  6  7  1  0
  6  8  2  0
  4  9  1  0
  9 10  1  0
 10 11  1  0
 11 12  2  0
 12 13  1  0
 13 14  1  0
 13 15  2  0
 15 16  1  0
 16 10  2  0
M  ISO  3   1   1   3   3   7   2
M  END
>  <symbol>  (876) 
b3hPhe_4I

>  <m_abbr>  (876) 
b3hPhe_4I

>  <m_name>  (876) 
L-beta3-homo-4-iodophenylalanine

>  <m_type>  (876) 
aa

>  <m_subtype>  (876) 
modified

>  <m_Rgroups>  (876) 
[H],[OH],[H]

>  <m_chem_types>  (876) 
1:backbone_n,2:backbone_c,3:backbone_n_mod

>  <m_activation_policy>  (876) 
canonical-sites-v1

$$$$

     RDKit          2D

 16 16  0  0  0  0  0  0  0  0999 V2000
   -2.3975    1.8033    0.0000 R   0  0  0  0  0  1  0  0  0  0  0  0
   -1.1988    0.9017    0.0000 N   0  0  0  0  0  0  0  0  0  0  0  0
    0.1815    1.4890    0.0000 R   0  0  0  0  0  1  0  0  0  0  0  0
   -1.3802   -0.5873    0.0000 C   0  0  0  0  0  0  0  0  0  0  0  0
   -2.7605   -1.1747    0.0000 C   0  0  0  0  0  0  0  0  0  0  0  0
   -3.9592   -0.2730    0.0000 C   0  0  0  0  0  0  0  0  0  0  0  0
   -5.3395   -0.8603    0.0000 R   0  0  0  0  0  1  0  0  0  0  0  0
   -3.7777    1.2160    0.0000 O   0  0  0  0  0  0  0  0  0  0  0  0
   -0.1815   -1.4890    0.0000 C   0  0  0  0  0  0  0  0  0  0  0  0
    1.1988   -0.9017    0.0000 C   0  0  0  0  0  0  0  0  0  0  0  0
    1.3802    0.5873    0.0000 C   0  0  0  0  0  0  0  0  0  0  0  0
    2.7605    1.1747    0.0000 C   0  0  0  0  0  0  0  0  0  0  0  0
    3.9592    0.2730    0.0000 C   0  0  0  0  0  0  0  0  0  0  0  0
    5.3395    0.8603    0.0000 I   0  0  0  0  0  0  0  0  0  0  0  0
    3.7777   -1.2160    0.0000 C   0  0  0  0  0  0  0  0  0  0  0  0
    2.3975   -1.8033    0.0000 C   0  0  0  0  0  0  0  0  0  0  0  0
  1  2  1  0
  2  3  1  0
  2  4  1  0
  4  5  1  6
  5  6  1  0
  6  7  1  0
  6  8  2  0
  4  9  1  0
  9 10  1  0
 10 11  1  0
 11 12  2  0
 12 13  1  0
 13 14  1  0
 13 15  2  0
 15 16  1  0
 16 10  2  0
M  ISO  3   1   1   3   3   7   2
M  END
>  <symbol>  (877) 
D_b3hPhe_4I

>  <m_abbr>  (877) 
D_b3hPhe_4I

>  <m_name>  (877) 
D-beta3-homo-4-iodophenylalanine

>  <m_type>  (877) 
aa

>  <m_subtype>  (877) 
modified

>  <m_Rgroups>  (877) 
[H],[OH],[H]

>  <m_chem_types>  (877) 
1:backbone_n,2:backbone_c,3:backbone_n_mod

>  <m_activation_policy>  (877) 
canonical-sites-v1

$$$$

     RDKit          2D

 15 15  0  0  0  0  0  0  0  0999 V2000
   -2.1298    1.7590    0.0000 R   0  0  0  0  0  1  0  0  0  0  0  0
   -0.8885    0.9168    0.0000 N   0  0  0  0  0  0  0  0  0  0  0  0
    0.4614    1.5707    0.0000 R   0  0  0  0  0  1  0  0  0  0  0  0
   -0.9972   -0.5793    0.0000 C   0  0  0  0  0  0  0  0  0  0  0  0
   -2.3472   -1.2332    0.0000 C   0  0  0  0  0  0  0  0  0  0  0  0
   -3.5885   -0.3910    0.0000 C   0  0  0  0  0  0  0  0  0  0  0  0
   -4.9384   -1.0449    0.0000 R   0  0  0  0  0  1  0  0  0  0  0  0
   -3.4798    1.1051    0.0000 O   0  0  0  0  0  0  0  0  0  0  0  0
    0.2441   -1.4214    0.0000 C   0  0  0  0  0  0  0  0  0  0  0  0
    1.5940   -0.7675    0.0000 C   0  0  0  0  0  0  0  0  0  0  0  0
    1.7027    0.7285    0.0000 C   0  0  0  0  0  0  0  0  0  0  0  0
    3.0527    1.3824    0.0000 C   0  0  0  0  0  0  0  0  0  0  0  0
    4.2940    0.5403    0.0000 C   0  0  0  0  0  0  0  0  0  0  0  0
    4.1853   -0.9558    0.0000 N   0  0  0  0  0  0  0  0  0  0  0  0
    2.8353   -1.6097    0.0000 C   0  0  0  0  0  0  0  0  0  0  0  0
  1  2  1  0
  2  3  1  0
  2  4  1  0
  4  5  1  1
  5  6  1  0
  6  7  1  0
  6  8  2  0
  4  9  1  0
  9 10  1  0
 10 11  2  0
 11 12  1  0
 12 13  2  0
 13 14  1  0
 14 15  2  0
 15 10  1  0
M  ISO  3   1   1   3   3   7   2
M  END
>  <symbol>  (878) 
b3h3Pal

>  <m_abbr>  (878) 
b3h3Pal

>  <m_name>  (878) 
L-beta3-homo-3-pyridylalanine

>  <m_type>  (878) 
aa

>  <m_subtype>  (878) 
modified

>  <m_Rgroups>  (878) 
[H],[OH],[H]

>  <m_chem_types>  (878) 
1:backbone_n,2:backbone_c,3:backbone_n_mod

>  <m_activation_policy>  (878) 
canonical-sites-v1

$$$$

     RDKit          2D

 15 15  0  0  0  0  0  0  0  0999 V2000
   -2.1298    1.7590    0.0000 R   0  0  0  0  0  1  0  0  0  0  0  0
   -0.8885    0.9168    0.0000 N   0  0  0  0  0  0  0  0  0  0  0  0
    0.4614    1.5707    0.0000 R   0  0  0  0  0  1  0  0  0  0  0  0
   -0.9972   -0.5793    0.0000 C   0  0  0  0  0  0  0  0  0  0  0  0
   -2.3472   -1.2332    0.0000 C   0  0  0  0  0  0  0  0  0  0  0  0
   -3.5885   -0.3910    0.0000 C   0  0  0  0  0  0  0  0  0  0  0  0
   -4.9384   -1.0449    0.0000 R   0  0  0  0  0  1  0  0  0  0  0  0
   -3.4798    1.1051    0.0000 O   0  0  0  0  0  0  0  0  0  0  0  0
    0.2441   -1.4214    0.0000 C   0  0  0  0  0  0  0  0  0  0  0  0
    1.5940   -0.7675    0.0000 C   0  0  0  0  0  0  0  0  0  0  0  0
    1.7027    0.7285    0.0000 C   0  0  0  0  0  0  0  0  0  0  0  0
    3.0527    1.3824    0.0000 C   0  0  0  0  0  0  0  0  0  0  0  0
    4.2940    0.5403    0.0000 C   0  0  0  0  0  0  0  0  0  0  0  0
    4.1853   -0.9558    0.0000 N   0  0  0  0  0  0  0  0  0  0  0  0
    2.8353   -1.6097    0.0000 C   0  0  0  0  0  0  0  0  0  0  0  0
  1  2  1  0
  2  3  1  0
  2  4  1  0
  4  5  1  6
  5  6  1  0
  6  7  1  0
  6  8  2  0
  4  9  1  0
  9 10  1  0
 10 11  2  0
 11 12  1  0
 12 13  2  0
 13 14  1  0
 14 15  2  0
 15 10  1  0
M  ISO  3   1   1   3   3   7   2
M  END
>  <symbol>  (879) 
D_b3h3Pal

>  <m_abbr>  (879) 
D_b3h3Pal

>  <m_name>  (879) 
D-beta3-homo-3-pyridylalanine

>  <m_type>  (879) 
aa

>  <m_subtype>  (879) 
modified

>  <m_Rgroups>  (879) 
[H],[OH],[H]

>  <m_chem_types>  (879) 
1:backbone_n,2:backbone_c,3:backbone_n_mod

>  <m_activation_policy>  (879) 
canonical-sites-v1

$$$$

     RDKit          2D

 15 15  0  0  0  0  0  0  0  0999 V2000
   -2.1298    1.7590    0.0000 R   0  0  0  0  0  1  0  0  0  0  0  0
   -0.8885    0.9168    0.0000 N   0  0  0  0  0  0  0  0  0  0  0  0
    0.4614    1.5707    0.0000 R   0  0  0  0  0  1  0  0  0  0  0  0
   -0.9972   -0.5793    0.0000 C   0  0  0  0  0  0  0  0  0  0  0  0
   -2.3472   -1.2332    0.0000 C   0  0  0  0  0  0  0  0  0  0  0  0
   -3.5885   -0.3910    0.0000 C   0  0  0  0  0  0  0  0  0  0  0  0
   -4.9384   -1.0449    0.0000 R   0  0  0  0  0  1  0  0  0  0  0  0
   -3.4798    1.1051    0.0000 O   0  0  0  0  0  0  0  0  0  0  0  0
    0.2441   -1.4214    0.0000 C   0  0  0  0  0  0  0  0  0  0  0  0
    1.5940   -0.7675    0.0000 C   0  0  0  0  0  0  0  0  0  0  0  0
    1.7027    0.7285    0.0000 C   0  0  0  0  0  0  0  0  0  0  0  0
    3.0527    1.3824    0.0000 C   0  0  0  0  0  0  0  0  0  0  0  0
    4.2940    0.5403    0.0000 N   0  0  0  0  0  0  0  0  0  0  0  0
    4.1853   -0.9558    0.0000 C   0  0  0  0  0  0  0  0  0  0  0  0
    2.8353   -1.6097    0.0000 C   0  0  0  0  0  0  0  0  0  0  0  0
  1  2  1  0
  2  3  1  0
  2  4  1  0
  4  5  1  1
  5  6  1  0
  6  7  1  0
  6  8  2  0
  4  9  1  0
  9 10  1  0
 10 11  1  0
 11 12  2  0
 12 13  1  0
 13 14  2  0
 14 15  1  0
 15 10  2  0
M  ISO  3   1   1   3   3   7   2
M  END
>  <symbol>  (880) 
b3h4Pal

>  <m_abbr>  (880) 
b3h4Pal

>  <m_name>  (880) 
L-beta3-homo-4-pyridylalanine

>  <m_type>  (880) 
aa

>  <m_subtype>  (880) 
modified

>  <m_Rgroups>  (880) 
[H],[OH],[H]

>  <m_chem_types>  (880) 
1:backbone_n,2:backbone_c,3:backbone_n_mod

>  <m_activation_policy>  (880) 
canonical-sites-v1

$$$$

     RDKit          2D

 15 15  0  0  0  0  0  0  0  0999 V2000
   -2.1298    1.7590    0.0000 R   0  0  0  0  0  1  0  0  0  0  0  0
   -0.8885    0.9168    0.0000 N   0  0  0  0  0  0  0  0  0  0  0  0
    0.4614    1.5707    0.0000 R   0  0  0  0  0  1  0  0  0  0  0  0
   -0.9972   -0.5793    0.0000 C   0  0  0  0  0  0  0  0  0  0  0  0
   -2.3472   -1.2332    0.0000 C   0  0  0  0  0  0  0  0  0  0  0  0
   -3.5885   -0.3910    0.0000 C   0  0  0  0  0  0  0  0  0  0  0  0
   -4.9384   -1.0449    0.0000 R   0  0  0  0  0  1  0  0  0  0  0  0
   -3.4798    1.1051    0.0000 O   0  0  0  0  0  0  0  0  0  0  0  0
    0.2441   -1.4214    0.0000 C   0  0  0  0  0  0  0  0  0  0  0  0
    1.5940   -0.7675    0.0000 C   0  0  0  0  0  0  0  0  0  0  0  0
    1.7027    0.7285    0.0000 C   0  0  0  0  0  0  0  0  0  0  0  0
    3.0527    1.3824    0.0000 C   0  0  0  0  0  0  0  0  0  0  0  0
    4.2940    0.5403    0.0000 N   0  0  0  0  0  0  0  0  0  0  0  0
    4.1853   -0.9558    0.0000 C   0  0  0  0  0  0  0  0  0  0  0  0
    2.8353   -1.6097    0.0000 C   0  0  0  0  0  0  0  0  0  0  0  0
  1  2  1  0
  2  3  1  0
  2  4  1  0
  4  5  1  6
  5  6  1  0
  6  7  1  0
  6  8  2  0
  4  9  1  0
  9 10  1  0
 10 11  1  0
 11 12  2  0
 12 13  1  0
 13 14  2  0
 14 15  1  0
 15 10  2  0
M  ISO  3   1   1   3   3   7   2
M  END
>  <symbol>  (881) 
D_b3h4Pal

>  <m_abbr>  (881) 
D_b3h4Pal

>  <m_name>  (881) 
D-beta3-homo-4-pyridylalanine

>  <m_type>  (881) 
aa

>  <m_subtype>  (881) 
modified

>  <m_Rgroups>  (881) 
[H],[OH],[H]

>  <m_chem_types>  (881) 
1:backbone_n,2:backbone_c,3:backbone_n_mod

>  <m_activation_policy>  (881) 
canonical-sites-v1

$$$$

     RDKit          2D

 14 13  0  0  0  0  0  0  0  0999 V2000
   -4.3771   -0.0196    0.0000 R   0  0  0  0  0  1  0  0  0  0  0  0
   -3.1433   -0.8726    0.0000 N   0  0  0  0  0  0  0  0  0  0  0  0
   -3.2651   -2.3677    0.0000 R   0  0  0  0  0  1  0  0  0  0  0  0
   -1.7876   -0.2306    0.0000 C   0  0  0  0  0  0  0  0  0  0  0  0
   -0.5538   -1.0836    0.0000 C   0  0  0  0  0  0  0  0  0  0  0  0
    0.8019   -0.4416    0.0000 C   0  0  0  0  0  0  0  0  0  0  0  0
    2.0357   -1.2946    0.0000 C   0  0  0  0  0  0  0  0  0  0  0  0
    3.3914   -0.6526    0.0000 N   0  0  0  0  0  0  0  0  0  0  0  0
    4.6252   -1.5056    0.0000 R   0  0  0  0  0  1  0  0  0  0  0  0
    3.5132    0.8425    0.0000 R   0  0  0  0  0  1  0  0  0  0  0  0
   -1.6658    1.2645    0.0000 C   0  0  0  0  0  0  0  0  0  0  0  0
   -0.3101    1.9065    0.0000 C   0  0  0  0  0  0  0  0  0  0  0  0
   -0.1883    3.4015    0.0000 R   0  0  0  0  0  1  0  0  0  0  0  0
    0.9237    1.0535    0.0000 O   0  0  0  0  0  0  0  0  0  0  0  0
  1  2  1  0
  2  3  1  0
  2  4  1  0
  4  5  1  6
  5  6  1  0
  6  7  1  0
  7  8  1  0
  8  9  1  0
  8 10  1  0
  4 11  1  0
 11 12  1  0
 12 13  1  0
 12 14  2  0
M  ISO  5   1   1   3   3   9   4  10   5  13   2
M  END
>  <symbol>  (882) 
b3hOrn

>  <m_abbr>  (882) 
b3hOrn

>  <m_name>  (882) 
L-beta3-homoornithine

>  <m_type>  (882) 
aa

>  <m_subtype>  (882) 
modified

>  <m_Rgroups>  (882) 
[H],[OH],[H],[H],[H]

>  <m_chem_types>  (882) 
1:backbone_n,2:backbone_c,3:backbone_n_mod,4:amine_primary,5:amine_primary

>  <m_activation_policy>  (882) 
canonical-sites-v1

$$$$

     RDKit          2D

 14 13  0  0  0  0  0  0  0  0999 V2000
   -4.3771   -0.0196    0.0000 R   0  0  0  0  0  1  0  0  0  0  0  0
   -3.1433   -0.8726    0.0000 N   0  0  0  0  0  0  0  0  0  0  0  0
   -3.2651   -2.3677    0.0000 R   0  0  0  0  0  1  0  0  0  0  0  0
   -1.7876   -0.2306    0.0000 C   0  0  0  0  0  0  0  0  0  0  0  0
   -0.5538   -1.0836    0.0000 C   0  0  0  0  0  0  0  0  0  0  0  0
    0.8019   -0.4416    0.0000 C   0  0  0  0  0  0  0  0  0  0  0  0
    2.0357   -1.2946    0.0000 C   0  0  0  0  0  0  0  0  0  0  0  0
    3.3914   -0.6526    0.0000 N   0  0  0  0  0  0  0  0  0  0  0  0
    4.6252   -1.5056    0.0000 R   0  0  0  0  0  1  0  0  0  0  0  0
    3.5132    0.8425    0.0000 R   0  0  0  0  0  1  0  0  0  0  0  0
   -1.6658    1.2645    0.0000 C   0  0  0  0  0  0  0  0  0  0  0  0
   -0.3101    1.9065    0.0000 C   0  0  0  0  0  0  0  0  0  0  0  0
   -0.1883    3.4015    0.0000 R   0  0  0  0  0  1  0  0  0  0  0  0
    0.9237    1.0535    0.0000 O   0  0  0  0  0  0  0  0  0  0  0  0
  1  2  1  0
  2  3  1  0
  2  4  1  0
  4  5  1  1
  5  6  1  0
  6  7  1  0
  7  8  1  0
  8  9  1  0
  8 10  1  0
  4 11  1  0
 11 12  1  0
 12 13  1  0
 12 14  2  0
M  ISO  5   1   1   3   3   9   4  10   5  13   2
M  END
>  <symbol>  (883) 
D_b3hOrn

>  <m_abbr>  (883) 
D_b3hOrn

>  <m_name>  (883) 
D-beta3-homoornithine

>  <m_type>  (883) 
aa

>  <m_subtype>  (883) 
modified

>  <m_Rgroups>  (883) 
[H],[OH],[H],[H],[H]

>  <m_chem_types>  (883) 
1:backbone_n,2:backbone_c,3:backbone_n_mod,4:amine_primary,5:amine_primary

>  <m_activation_policy>  (883) 
canonical-sites-v1

$$$$

     RDKit          2D

 13 12  0  0  0  0  0  0  0  0999 V2000
   -3.8971   -0.1731    0.0000 R   0  0  0  0  0  1  0  0  0  0  0  0
   -2.5981   -0.9231    0.0000 N   0  0  0  0  0  0  0  0  0  0  0  0
   -2.5981   -2.4231    0.0000 R   0  0  0  0  0  1  0  0  0  0  0  0
   -1.2990   -0.1731    0.0000 C   0  0  0  0  0  0  0  0  0  0  0  0
   -0.0000   -0.9231    0.0000 C   0  0  0  0  0  0  0  0  0  0  0  0
    1.2990   -0.1731    0.0000 C   0  0  0  0  0  0  0  0  0  0  0  0
    2.5981   -0.9231    0.0000 N   0  0  0  0  0  0  0  0  0  0  0  0
    3.8971   -0.1731    0.0000 R   0  0  0  0  0  1  0  0  0  0  0  0
    2.5981   -2.4231    0.0000 R   0  0  0  0  0  1  0  0  0  0  0  0
   -1.2990    1.3269    0.0000 C   0  0  0  0  0  0  0  0  0  0  0  0
   -0.0000    2.0769    0.0000 C   0  0  0  0  0  0  0  0  0  0  0  0
   -0.0000    3.5769    0.0000 R   0  0  0  0  0  1  0  0  0  0  0  0
    1.2990    1.3269    0.0000 O   0  0  0  0  0  0  0  0  0  0  0  0
  1  2  1  0
  2  3  1  0
  2  4  1  0
  4  5  1  6
  5  6  1  0
  6  7  1  0
  7  8  1  0
  7  9  1  0
  4 10  1  0
 10 11  1  0
 11 12  1  0
 11 13  2  0
M  ISO  5   1   1   3   3   8   4   9   5  12   2
M  END
>  <symbol>  (884) 
b3hDab

>  <m_abbr>  (884) 
b3hDab

>  <m_name>  (884) 
L-beta3-homo-2,4-diaminobutyric acid

>  <m_type>  (884) 
aa

>  <m_subtype>  (884) 
modified

>  <m_Rgroups>  (884) 
[H],[OH],[H],[H],[H]

>  <m_chem_types>  (884) 
1:backbone_n,2:backbone_c,3:backbone_n_mod,4:amine_primary,5:amine_primary

>  <m_activation_policy>  (884) 
canonical-sites-v1

$$$$

     RDKit          2D

 13 12  0  0  0  0  0  0  0  0999 V2000
   -3.8971   -0.1731    0.0000 R   0  0  0  0  0  1  0  0  0  0  0  0
   -2.5981   -0.9231    0.0000 N   0  0  0  0  0  0  0  0  0  0  0  0
   -2.5981   -2.4231    0.0000 R   0  0  0  0  0  1  0  0  0  0  0  0
   -1.2990   -0.1731    0.0000 C   0  0  0  0  0  0  0  0  0  0  0  0
   -0.0000   -0.9231    0.0000 C   0  0  0  0  0  0  0  0  0  0  0  0
    1.2990   -0.1731    0.0000 C   0  0  0  0  0  0  0  0  0  0  0  0
    2.5981   -0.9231    0.0000 N   0  0  0  0  0  0  0  0  0  0  0  0
    3.8971   -0.1731    0.0000 R   0  0  0  0  0  1  0  0  0  0  0  0
    2.5981   -2.4231    0.0000 R   0  0  0  0  0  1  0  0  0  0  0  0
   -1.2990    1.3269    0.0000 C   0  0  0  0  0  0  0  0  0  0  0  0
   -0.0000    2.0769    0.0000 C   0  0  0  0  0  0  0  0  0  0  0  0
   -0.0000    3.5769    0.0000 R   0  0  0  0  0  1  0  0  0  0  0  0
    1.2990    1.3269    0.0000 O   0  0  0  0  0  0  0  0  0  0  0  0
  1  2  1  0
  2  3  1  0
  2  4  1  0
  4  5  1  1
  5  6  1  0
  6  7  1  0
  7  8  1  0
  7  9  1  0
  4 10  1  0
 10 11  1  0
 11 12  1  0
 11 13  2  0
M  ISO  5   1   1   3   3   8   4   9   5  12   2
M  END
>  <symbol>  (885) 
D_b3hDab

>  <m_abbr>  (885) 
D_b3hDab

>  <m_name>  (885) 
D-beta3-homo-2,4-diaminobutyric acid

>  <m_type>  (885) 
aa

>  <m_subtype>  (885) 
modified

>  <m_Rgroups>  (885) 
[H],[OH],[H],[H],[H]

>  <m_chem_types>  (885) 
1:backbone_n,2:backbone_c,3:backbone_n_mod,4:amine_primary,5:amine_primary

>  <m_activation_policy>  (885) 
canonical-sites-v1

$$$$

     RDKit          2D

 12 11  0  0  0  0  0  0  0  0999 V2000
   -2.3098   -1.2902    0.0000 R   0  0  0  0  0  1  0  0  0  0  0  0
   -0.8410   -1.5946    0.0000 N   0  0  0  0  0  0  0  0  0  0  0  0
   -0.3702   -3.0188    0.0000 R   0  0  0  0  0  1  0  0  0  0  0  0
    0.1569   -0.4747    0.0000 C   0  0  0  0  0  0  0  0  0  0  0  0
    1.6257   -0.7791    0.0000 C   0  0  0  0  0  0  0  0  0  0  0  0
    2.6237    0.3408    0.0000 C   0  0  0  0  0  0  0  0  0  0  0  0
    4.0925    0.0364    0.0000 R   0  0  0  0  0  1  0  0  0  0  0  0
    2.1529    1.7650    0.0000 O   0  0  0  0  0  0  0  0  0  0  0  0
   -0.3139    0.9495    0.0000 C   0  0  0  0  0  0  0  0  0  0  0  0
   -1.7827    1.2538    0.0000 N   0  0  0  0  0  0  0  0  0  0  0  0
   -2.7807    0.1340    0.0000 R   0  0  0  0  0  1  0  0  0  0  0  0
   -2.2535    2.6780    0.0000 R   0  0  0  0  0  1  0  0  0  0  0  0
  1  2  1  0
  2  3  1  0
  2  4  1  0
  4  5  1  1
  5  6  1  0
  6  7  1  0
  6  8  2  0
  4  9  1  0
  9 10  1  0
 10 11  1  0
 10 12  1  0
M  ISO  5   1   1   3   3   7   2  11   4  12   5
M  END
>  <symbol>  (886) 
b3hDap

>  <m_abbr>  (886) 
b3hDap

>  <m_name>  (886) 
L-beta3-homo-2,3-diaminopropionic acid

>  <m_type>  (886) 
aa

>  <m_subtype>  (886) 
modified

>  <m_Rgroups>  (886) 
[H],[OH],[H],[H],[H]

>  <m_chem_types>  (886) 
1:backbone_n,2:backbone_c,3:backbone_n_mod,4:amine_primary,5:amine_primary

>  <m_activation_policy>  (886) 
canonical-sites-v1

$$$$

     RDKit          2D

 12 11  0  0  0  0  0  0  0  0999 V2000
   -2.3098   -1.2902    0.0000 R   0  0  0  0  0  1  0  0  0  0  0  0
   -0.8410   -1.5946    0.0000 N   0  0  0  0  0  0  0  0  0  0  0  0
   -0.3702   -3.0188    0.0000 R   0  0  0  0  0  1  0  0  0  0  0  0
    0.1569   -0.4747    0.0000 C   0  0  0  0  0  0  0  0  0  0  0  0
    1.6257   -0.7791    0.0000 C   0  0  0  0  0  0  0  0  0  0  0  0
    2.6237    0.3408    0.0000 C   0  0  0  0  0  0  0  0  0  0  0  0
    4.0925    0.0364    0.0000 R   0  0  0  0  0  1  0  0  0  0  0  0
    2.1529    1.7650    0.0000 O   0  0  0  0  0  0  0  0  0  0  0  0
   -0.3139    0.9495    0.0000 C   0  0  0  0  0  0  0  0  0  0  0  0
   -1.7827    1.2538    0.0000 N   0  0  0  0  0  0  0  0  0  0  0  0
   -2.7807    0.1340    0.0000 R   0  0  0  0  0  1  0  0  0  0  0  0
   -2.2535    2.6780    0.0000 R   0  0  0  0  0  1  0  0  0  0  0  0
  1  2  1  0
  2  3  1  0
  2  4  1  0
  4  5  1  6
  5  6  1  0
  6  7  1  0
  6  8  2  0
  4  9  1  0
  9 10  1  0
 10 11  1  0
 10 12  1  0
M  ISO  5   1   1   3   3   7   2  11   4  12   5
M  END
>  <symbol>  (887) 
D_b3hDap

>  <m_abbr>  (887) 
D_b3hDap

>  <m_name>  (887) 
D-beta3-homo-2,3-diaminopropionic acid

>  <m_type>  (887) 
aa

>  <m_subtype>  (887) 
modified

>  <m_Rgroups>  (887) 
[H],[OH],[H],[H],[H]

>  <m_chem_types>  (887) 
1:backbone_n,2:backbone_c,3:backbone_n_mod,4:amine_primary,5:amine_primary

>  <m_activation_policy>  (887) 
canonical-sites-v1

$$$$

     RDKit          2D

 11 10  0  0  0  0  0  0  0  0999 V2000
   -3.3018   -0.2248    0.0000 R   0  0  0  0  0  1  0  0  0  0  0  0
   -1.9832   -0.9398    0.0000 N   0  0  0  0  0  0  0  0  0  0  0  0
   -1.9430   -2.4392    0.0000 R   0  0  0  0  0  1  0  0  0  0  0  0
   -0.7047   -0.1553    0.0000 C   0  0  0  0  0  0  0  0  0  0  0  0
    0.6140   -0.8702    0.0000 C   0  0  0  0  0  0  0  0  0  0  0  0
    1.8925   -0.0858    0.0000 C   0  0  0  0  0  0  0  0  0  0  0  0
    3.2111   -0.8007    0.0000 Se  0  0  0  0  0  2  0  0  0  0  0  0
    4.4896   -0.0162    0.0000 C   0  0  0  0  0  0  0  0  0  0  0  0
   -0.7448    1.3442    0.0000 C   0  0  0  0  0  0  0  0  0  0  0  0
    0.5337    2.1287    0.0000 R   0  0  0  0  0  1  0  0  0  0  0  0
   -2.0634    2.0592    0.0000 O   0  0  0  0  0  0  0  0  0  0  0  0
  1  2  1  0
  2  3  1  0
  2  4  1  0
  4  5  1  6
  5  6  1  0
  6  7  1  0
  7  8  1  0
  4  9  1  0
  9 10  1  0
  9 11  2  0
M  ISO  3   1   1   3   3  10   2
M  END
>  <symbol>  (888) 
SeM

>  <m_abbr>  (888) 
SeM

>  <m_name>  (888) 
L-selenomethionine

>  <m_type>  (888) 
aa

>  <m_subtype>  (888) 
modified

>  <m_Rgroups>  (888) 
[H],[OH],[H]

>  <m_chem_types>  (888) 
1:backbone_n,2:backbone_c,3:backbone_n_mod

>  <m_activation_policy>  (888) 
canonical-sites-v1

$$$$

     RDKit          2D

 11 10  0  0  0  0  0  0  0  0999 V2000
   -3.3018   -0.2248    0.0000 R   0  0  0  0  0  1  0  0  0  0  0  0
   -1.9832   -0.9398    0.0000 N   0  0  0  0  0  0  0  0  0  0  0  0
   -1.9430   -2.4392    0.0000 R   0  0  0  0  0  1  0  0  0  0  0  0
   -0.7047   -0.1553    0.0000 C   0  0  0  0  0  0  0  0  0  0  0  0
    0.6140   -0.8702    0.0000 C   0  0  0  0  0  0  0  0  0  0  0  0
    1.8925   -0.0858    0.0000 C   0  0  0  0  0  0  0  0  0  0  0  0
    3.2111   -0.8007    0.0000 Se  0  0  0  0  0  2  0  0  0  0  0  0
    4.4896   -0.0162    0.0000 C   0  0  0  0  0  0  0  0  0  0  0  0
   -0.7448    1.3442    0.0000 C   0  0  0  0  0  0  0  0  0  0  0  0
    0.5337    2.1287    0.0000 R   0  0  0  0  0  1  0  0  0  0  0  0
   -2.0634    2.0592    0.0000 O   0  0  0  0  0  0  0  0  0  0  0  0
  1  2  1  0
  2  3  1  0
  2  4  1  0
  4  5  1  1
  5  6  1  0
  6  7  1  0
  7  8  1  0
  4  9  1  0
  9 10  1  0
  9 11  2  0
M  ISO  3   1   1   3   3  10   2
M  END
>  <symbol>  (889) 
D_SeM

>  <m_abbr>  (889) 
D_SeM

>  <m_name>  (889) 
D-selenomethionine

>  <m_type>  (889) 
aa

>  <m_subtype>  (889) 
modified

>  <m_Rgroups>  (889) 
[H],[OH],[H]

>  <m_chem_types>  (889) 
1:backbone_n,2:backbone_c,3:backbone_n_mod

>  <m_activation_policy>  (889) 
canonical-sites-v1

$$$$

     RDKit          2D

 10  9  0  0  0  0  0  0  0  0999 V2000
   -1.2990   -2.2500    0.0000 R   0  0  0  0  0  1  0  0  0  0  0  0
    0.0000   -1.5000    0.0000 N   0  0  0  0  0  0  0  0  0  0  0  0
    1.2990   -2.2500    0.0000 R   0  0  0  0  0  1  0  0  0  0  0  0
    0.0000    0.0000    0.0000 C   0  0  0  0  0  0  0  0  0  0  0  0
    1.2990    0.7500    0.0000 C   0  0  0  0  0  0  0  0  0  0  0  0
    1.2990    2.2500    0.0000 R   0  0  0  0  0  1  0  0  0  0  0  0
    2.5981    0.0000    0.0000 C   0  0  0  0  0  0  0  0  0  0  0  0
   -1.2990    0.7500    0.0000 C   0  0  0  0  0  0  0  0  0  0  0  0
   -1.2990    2.2500    0.0000 R   0  0  0  0  0  1  0  0  0  0  0  0
   -2.5981   -0.0000    0.0000 O   0  0  0  0  0  0  0  0  0  0  0  0
  1  2  1  0
  2  3  1  0
  4  2  1  6
  4  5  1  0
  5  6  1  0
  5  7  2  0
  4  8  1  0
  8  9  1  0
  8 10  2  0
M  ISO  4   1   1   3   3   6   4   9   2
M  END
>  <symbol>  (890) 
VinGly

>  <m_abbr>  (890) 
VinGly

>  <m_name>  (890) 
L-vinylglycine (2-amino-3-butenoic acid)

>  <m_type>  (890) 
aa

>  <m_subtype>  (890) 
modified

>  <m_Rgroups>  (890) 
[H],[OH],[H],[H]

>  <m_chem_types>  (890) 
1:backbone_n,2:backbone_c,3:backbone_n_mod,4:terminal_alkene

>  <m_activation_policy>  (890) 
canonical-sites-v1

$$$$

     RDKit          2D

 10  9  0  0  0  0  0  0  0  0999 V2000
   -1.2990   -2.2500    0.0000 R   0  0  0  0  0  1  0  0  0  0  0  0
    0.0000   -1.5000    0.0000 N   0  0  0  0  0  0  0  0  0  0  0  0
    1.2990   -2.2500    0.0000 R   0  0  0  0  0  1  0  0  0  0  0  0
    0.0000    0.0000    0.0000 C   0  0  0  0  0  0  0  0  0  0  0  0
    1.2990    0.7500    0.0000 C   0  0  0  0  0  0  0  0  0  0  0  0
    1.2990    2.2500    0.0000 R   0  0  0  0  0  1  0  0  0  0  0  0
    2.5981    0.0000    0.0000 C   0  0  0  0  0  0  0  0  0  0  0  0
   -1.2990    0.7500    0.0000 C   0  0  0  0  0  0  0  0  0  0  0  0
   -1.2990    2.2500    0.0000 R   0  0  0  0  0  1  0  0  0  0  0  0
   -2.5981   -0.0000    0.0000 O   0  0  0  0  0  0  0  0  0  0  0  0
  1  2  1  0
  2  3  1  0
  4  2  1  1
  4  5  1  0
  5  6  1  0
  5  7  2  0
  4  8  1  0
  8  9  1  0
  8 10  2  0
M  ISO  4   1   1   3   3   6   4   9   2
M  END
>  <symbol>  (891) 
D_VinGly

>  <m_abbr>  (891) 
D_VinGly

>  <m_name>  (891) 
D-vinylglycine

>  <m_type>  (891) 
aa

>  <m_subtype>  (891) 
modified

>  <m_Rgroups>  (891) 
[H],[OH],[H],[H]

>  <m_chem_types>  (891) 
1:backbone_n,2:backbone_c,3:backbone_n_mod,4:terminal_alkene

>  <m_activation_policy>  (891) 
canonical-sites-v1

$$$$

     RDKit          2D

 12 11  0  0  0  0  0  0  0  0999 V2000
   -3.2194    0.6578    0.0000 R   0  0  0  0  0  1  0  0  0  0  0  0
   -2.2612   -0.4963    0.0000 N   0  0  0  0  0  0  0  0  0  0  0  0
   -2.7816   -1.9032    0.0000 R   0  0  0  0  0  1  0  0  0  0  0  0
   -0.7826   -0.2436    0.0000 C   0  0  0  0  0  0  0  0  0  0  0  0
    0.1755   -1.3977    0.0000 C   0  0  0  0  0  0  0  0  0  0  0  0
    1.6541   -1.1450    0.0000 C   0  0  0  0  0  0  0  0  0  0  0  0
    2.6122   -2.2991    0.0000 R   0  0  0  0  0  1  0  0  0  0  0  0
    2.1745    0.2619    0.0000 C   0  0  0  0  0  0  0  0  0  0  0  0
    2.6949    1.6687    0.0000 C   0  0  0  0  0  0  0  0  0  0  0  0
   -0.2622    1.1632    0.0000 C   0  0  0  0  0  0  0  0  0  0  0  0
    1.2163    1.4160    0.0000 R   0  0  0  0  0  1  0  0  0  0  0  0
   -1.2204    2.3173    0.0000 O   0  0  0  0  0  0  0  0  0  0  0  0
  1  2  1  0
  2  3  1  0
  2  4  1  0
  4  5  1  6
  5  6  1  0
  6  7  1  0
  6  8  1  0
  8  9  3  0
  4 10  1  0
 10 11  1  0
 10 12  2  0
M  ISO  4   1   1   3   3   7   4  11   2
M  END
>  <symbol>  (892) 
HPG

>  <m_abbr>  (892) 
HPG

>  <m_name>  (892) 
L-homopropargylglycine (2-amino-5-hexynoic acid)

>  <m_type>  (892) 
aa

>  <m_subtype>  (892) 
modified

>  <m_Rgroups>  (892) 
[H],[OH],[H],[H]

>  <m_chem_types>  (892) 
1:backbone_n,2:backbone_c,3:backbone_n_mod,4:alkyne_c

>  <m_activation_policy>  (892) 
canonical-sites-v1

$$$$

     RDKit          2D

 12 11  0  0  0  0  0  0  0  0999 V2000
   -3.2194    0.6578    0.0000 R   0  0  0  0  0  1  0  0  0  0  0  0
   -2.2612   -0.4963    0.0000 N   0  0  0  0  0  0  0  0  0  0  0  0
   -2.7816   -1.9032    0.0000 R   0  0  0  0  0  1  0  0  0  0  0  0
   -0.7826   -0.2436    0.0000 C   0  0  0  0  0  0  0  0  0  0  0  0
    0.1755   -1.3977    0.0000 C   0  0  0  0  0  0  0  0  0  0  0  0
    1.6541   -1.1450    0.0000 C   0  0  0  0  0  0  0  0  0  0  0  0
    2.6122   -2.2991    0.0000 R   0  0  0  0  0  1  0  0  0  0  0  0
    2.1745    0.2619    0.0000 C   0  0  0  0  0  0  0  0  0  0  0  0
    2.6949    1.6687    0.0000 C   0  0  0  0  0  0  0  0  0  0  0  0
   -0.2622    1.1632    0.0000 C   0  0  0  0  0  0  0  0  0  0  0  0
    1.2163    1.4160    0.0000 R   0  0  0  0  0  1  0  0  0  0  0  0
   -1.2204    2.3173    0.0000 O   0  0  0  0  0  0  0  0  0  0  0  0
  1  2  1  0
  2  3  1  0
  2  4  1  0
  4  5  1  1
  5  6  1  0
  6  7  1  0
  6  8  1  0
  8  9  3  0
  4 10  1  0
 10 11  1  0
 10 12  2  0
M  ISO  4   1   1   3   3   7   4  11   2
M  END
>  <symbol>  (893) 
D_HPG

>  <m_abbr>  (893) 
D_HPG

>  <m_name>  (893) 
D-homopropargylglycine

>  <m_type>  (893) 
aa

>  <m_subtype>  (893) 
modified

>  <m_Rgroups>  (893) 
[H],[OH],[H],[H]

>  <m_chem_types>  (893) 
1:backbone_n,2:backbone_c,3:backbone_n_mod,4:alkyne_c

>  <m_activation_policy>  (893) 
canonical-sites-v1

$$$$

     RDKit          2D

 13 12  0  0  0  0  0  0  0  0999 V2000
   -1.6358    2.6813    0.0000 R   0  0  0  0  0  1  0  0  0  0  0  0
   -2.1808    1.2838    0.0000 N   0  0  0  0  0  0  0  0  0  0  0  0
   -3.6635    1.0569    0.0000 R   0  0  0  0  0  1  0  0  0  0  0  0
   -1.2429    0.1131    0.0000 C   0  0  0  0  0  0  0  0  0  0  0  0
    0.2398    0.3400    0.0000 C   0  0  0  0  0  0  0  0  0  0  0  0
    1.1776   -0.8307    0.0000 S   0  0  0  0  0  0  0  0  0  0  0  0
    2.6604   -0.6039    0.0000 C   0  0  0  0  0  0  0  0  0  0  0  0
    3.5982   -1.7746    0.0000 R   0  0  0  0  0  1  0  0  0  0  0  0
    3.2053    0.7936    0.0000 C   0  0  0  0  0  0  0  0  0  0  0  0
    3.7502    2.1912    0.0000 C   0  0  0  0  0  0  0  0  0  0  0  0
   -1.7879   -1.2844    0.0000 C   0  0  0  0  0  0  0  0  0  0  0  0
   -0.8500   -2.4551    0.0000 R   0  0  0  0  0  1  0  0  0  0  0  0
   -3.2706   -1.5112    0.0000 O   0  0  0  0  0  0  0  0  0  0  0  0
  1  2  1  0
  2  3  1  0
  2  4  1  0
  4  5  1  1
  5  6  1  0
  6  7  1  0
  7  8  1  0
  7  9  1  0
  9 10  3  0
  4 11  1  0
 11 12  1  0
 11 13  2  0
M  ISO  4   1   1   3   3   8   4  12   2
M  END
>  <symbol>  (894) 
Cys_Prg

>  <m_abbr>  (894) 
Cys_Prg

>  <m_name>  (894) 
L-S-propargylcysteine

>  <m_type>  (894) 
aa

>  <m_subtype>  (894) 
modified

>  <m_Rgroups>  (894) 
[H],[OH],[H],[H]

>  <m_chem_types>  (894) 
1:backbone_n,2:backbone_c,3:backbone_n_mod,4:alkyne_c

>  <m_activation_policy>  (894) 
canonical-sites-v1

$$$$

     RDKit          2D

 13 12  0  0  0  0  0  0  0  0999 V2000
   -1.6358    2.6813    0.0000 R   0  0  0  0  0  1  0  0  0  0  0  0
   -2.1808    1.2838    0.0000 N   0  0  0  0  0  0  0  0  0  0  0  0
   -3.6635    1.0569    0.0000 R   0  0  0  0  0  1  0  0  0  0  0  0
   -1.2429    0.1131    0.0000 C   0  0  0  0  0  0  0  0  0  0  0  0
    0.2398    0.3400    0.0000 C   0  0  0  0  0  0  0  0  0  0  0  0
    1.1776   -0.8307    0.0000 S   0  0  0  0  0  0  0  0  0  0  0  0
    2.6604   -0.6039    0.0000 C   0  0  0  0  0  0  0  0  0  0  0  0
    3.5982   -1.7746    0.0000 R   0  0  0  0  0  1  0  0  0  0  0  0
    3.2053    0.7936    0.0000 C   0  0  0  0  0  0  0  0  0  0  0  0
    3.7502    2.1912    0.0000 C   0  0  0  0  0  0  0  0  0  0  0  0
   -1.7879   -1.2844    0.0000 C   0  0  0  0  0  0  0  0  0  0  0  0
   -0.8500   -2.4551    0.0000 R   0  0  0  0  0  1  0  0  0  0  0  0
   -3.2706   -1.5112    0.0000 O   0  0  0  0  0  0  0  0  0  0  0  0
  1  2  1  0
  2  3  1  0
  2  4  1  0
  4  5  1  6
  5  6  1  0
  6  7  1  0
  7  8  1  0
  7  9  1  0
  9 10  3  0
  4 11  1  0
 11 12  1  0
 11 13  2  0
M  ISO  4   1   1   3   3   8   4  12   2
M  END
>  <symbol>  (895) 
D_Cys_Prg

>  <m_abbr>  (895) 
D_Cys_Prg

>  <m_name>  (895) 
D-S-propargylcysteine

>  <m_type>  (895) 
aa

>  <m_subtype>  (895) 
modified

>  <m_Rgroups>  (895) 
[H],[OH],[H],[H]

>  <m_chem_types>  (895) 
1:backbone_n,2:backbone_c,3:backbone_n_mod,4:alkyne_c

>  <m_activation_policy>  (895) 
canonical-sites-v1

$$$$

     RDKit          2D

  9  8  0  0  0  0  0  0  0  0999 V2000
   -2.2500    1.0104    0.0000 R   0  0  0  0  0  1  0  0  0  0  0  0
   -1.5000   -0.2887    0.0000 N   0  0  0  0  0  0  0  0  0  0  0  0
   -2.2500   -1.5877    0.0000 R   0  0  0  0  0  1  0  0  0  0  0  0
   -0.0000   -0.2887    0.0000 C   0  0  0  0  0  0  0  0  0  0  0  0
    0.7500   -1.5877    0.0000 C   0  0  0  0  0  0  0  0  0  0  0  0
    2.2500   -1.5877    0.0000 R   0  0  0  0  0  1  0  0  0  0  0  0
    0.7500    1.0104    0.0000 C   0  0  0  0  0  0  0  0  0  0  0  0
    2.2500    1.0104    0.0000 R   0  0  0  0  0  1  0  0  0  0  0  0
   -0.0000    2.3094    0.0000 O   0  0  0  0  0  0  0  0  0  0  0  0
  1  2  1  0
  2  3  1  0
  2  4  1  0
  4  5  1  6
  5  6  1  0
  4  7  1  0
  7  8  1  0
  7  9  2  0
M  ISO  4   1   1   3   3   6   4   8   2
M  END
>  <symbol>  (896) 
Ala_3Br

>  <m_abbr>  (896) 
Ala_3Br

>  <m_name>  (896) 
L-beta-bromoalanine

>  <m_type>  (896) 
aa

>  <m_subtype>  (896) 
modified

>  <m_Rgroups>  (896) 
[H],[OH],[H],[Br]

>  <m_chem_types>  (896) 
1:backbone_n,2:backbone_c,3:backbone_n_mod,4:alkyl_halide_c

>  <m_activation_policy>  (896) 
canonical-sites-v1

$$$$

     RDKit          2D

  9  8  0  0  0  0  0  0  0  0999 V2000
   -2.2500    1.0104    0.0000 R   0  0  0  0  0  1  0  0  0  0  0  0
   -1.5000   -0.2887    0.0000 N   0  0  0  0  0  0  0  0  0  0  0  0
   -2.2500   -1.5877    0.0000 R   0  0  0  0  0  1  0  0  0  0  0  0
   -0.0000   -0.2887    0.0000 C   0  0  0  0  0  0  0  0  0  0  0  0
    0.7500   -1.5877    0.0000 C   0  0  0  0  0  0  0  0  0  0  0  0
    2.2500   -1.5877    0.0000 R   0  0  0  0  0  1  0  0  0  0  0  0
    0.7500    1.0104    0.0000 C   0  0  0  0  0  0  0  0  0  0  0  0
    2.2500    1.0104    0.0000 R   0  0  0  0  0  1  0  0  0  0  0  0
   -0.0000    2.3094    0.0000 O   0  0  0  0  0  0  0  0  0  0  0  0
  1  2  1  0
  2  3  1  0
  2  4  1  0
  4  5  1  1
  5  6  1  0
  4  7  1  0
  7  8  1  0
  7  9  2  0
M  ISO  4   1   1   3   3   6   4   8   2
M  END
>  <symbol>  (897) 
D_Ala_3Br

>  <m_abbr>  (897) 
D_Ala_3Br

>  <m_name>  (897) 
D-beta-bromoalanine

>  <m_type>  (897) 
aa

>  <m_subtype>  (897) 
modified

>  <m_Rgroups>  (897) 
[H],[OH],[H],[Br]

>  <m_chem_types>  (897) 
1:backbone_n,2:backbone_c,3:backbone_n_mod,4:alkyl_halide_c

>  <m_activation_policy>  (897) 
canonical-sites-v1

$$$$

     RDKit          2D

  9  8  0  0  0  0  0  0  0  0999 V2000
   -2.2500    1.0104    0.0000 R   0  0  0  0  0  1  0  0  0  0  0  0
   -1.5000   -0.2887    0.0000 N   0  0  0  0  0  0  0  0  0  0  0  0
   -2.2500   -1.5877    0.0000 R   0  0  0  0  0  1  0  0  0  0  0  0
   -0.0000   -0.2887    0.0000 C   0  0  0  0  0  0  0  0  0  0  0  0
    0.7500   -1.5877    0.0000 C   0  0  0  0  0  0  0  0  0  0  0  0
    2.2500   -1.5877    0.0000 R   0  0  0  0  0  1  0  0  0  0  0  0
    0.7500    1.0104    0.0000 C   0  0  0  0  0  0  0  0  0  0  0  0
    2.2500    1.0104    0.0000 R   0  0  0  0  0  1  0  0  0  0  0  0
   -0.0000    2.3094    0.0000 O   0  0  0  0  0  0  0  0  0  0  0  0
  1  2  1  0
  2  3  1  0
  2  4  1  0
  4  5  1  6
  5  6  1  0
  4  7  1  0
  7  8  1  0
  7  9  2  0
M  ISO  4   1   1   3   3   6   4   8   2
M  END
>  <symbol>  (898) 
Ala_3Cl

>  <m_abbr>  (898) 
Ala_3Cl

>  <m_name>  (898) 
L-beta-chloroalanine

>  <m_type>  (898) 
aa

>  <m_subtype>  (898) 
modified

>  <m_Rgroups>  (898) 
[H],[OH],[H],[Cl]

>  <m_chem_types>  (898) 
1:backbone_n,2:backbone_c,3:backbone_n_mod,4:alkyl_halide_c

>  <m_activation_policy>  (898) 
canonical-sites-v1

$$$$

     RDKit          2D

  9  8  0  0  0  0  0  0  0  0999 V2000
   -2.2500    1.0104    0.0000 R   0  0  0  0  0  1  0  0  0  0  0  0
   -1.5000   -0.2887    0.0000 N   0  0  0  0  0  0  0  0  0  0  0  0
   -2.2500   -1.5877    0.0000 R   0  0  0  0  0  1  0  0  0  0  0  0
   -0.0000   -0.2887    0.0000 C   0  0  0  0  0  0  0  0  0  0  0  0
    0.7500   -1.5877    0.0000 C   0  0  0  0  0  0  0  0  0  0  0  0
    2.2500   -1.5877    0.0000 R   0  0  0  0  0  1  0  0  0  0  0  0
    0.7500    1.0104    0.0000 C   0  0  0  0  0  0  0  0  0  0  0  0
    2.2500    1.0104    0.0000 R   0  0  0  0  0  1  0  0  0  0  0  0
   -0.0000    2.3094    0.0000 O   0  0  0  0  0  0  0  0  0  0  0  0
  1  2  1  0
  2  3  1  0
  2  4  1  0
  4  5  1  1
  5  6  1  0
  4  7  1  0
  7  8  1  0
  7  9  2  0
M  ISO  4   1   1   3   3   6   4   8   2
M  END
>  <symbol>  (899) 
D_Ala_3Cl

>  <m_abbr>  (899) 
D_Ala_3Cl

>  <m_name>  (899) 
D-beta-chloroalanine

>  <m_type>  (899) 
aa

>  <m_subtype>  (899) 
modified

>  <m_Rgroups>  (899) 
[H],[OH],[H],[Cl]

>  <m_chem_types>  (899) 
1:backbone_n,2:backbone_c,3:backbone_n_mod,4:alkyl_halide_c

>  <m_activation_policy>  (899) 
canonical-sites-v1

$$$$

     RDKit          2D

 15 15  0  0  0  0  0  0  0  0999 V2000
   -2.9107    2.0342    0.0000 R   0  0  0  0  0  1  0  0  0  0  0  0
   -1.6606    1.2052    0.0000 N   0  0  0  0  0  0  0  0  0  0  0  0
   -0.3176    1.8733    0.0000 R   0  0  0  0  0  1  0  0  0  0  0  0
   -1.7535   -0.2919    0.0000 C   0  0  0  0  0  0  0  0  0  0  0  0
   -0.5034   -1.1210    0.0000 C   0  0  0  0  0  0  0  0  0  0  0  0
    0.8396   -0.4529    0.0000 C   0  0  0  0  0  0  0  0  0  0  0  0
    0.9325    1.0442    0.0000 C   0  0  0  0  0  0  0  0  0  0  0  0
    2.2755    1.7123    0.0000 C   0  0  0  0  0  0  0  0  0  0  0  0
    3.5256    0.8833    0.0000 C   0  0  0  0  0  0  0  0  0  0  0  0
    3.4327   -0.6138    0.0000 C   0  0  0  0  0  0  0  0  0  0  0  0
    4.6828   -1.4428    0.0000 I   0  0  0  0  0  0  0  0  0  0  0  0
    2.0897   -1.2819    0.0000 C   0  0  0  0  0  0  0  0  0  0  0  0
   -3.0965   -0.9600    0.0000 C   0  0  0  0  0  0  0  0  0  0  0  0
   -4.3466   -0.1310    0.0000 R   0  0  0  0  0  1  0  0  0  0  0  0
   -3.1894   -2.4572    0.0000 O   0  0  0  0  0  0  0  0  0  0  0  0
  1  2  1  0
  2  3  1  0
  2  4  1  0
  4  5  1  1
  5  6  1  0
  6  7  2  0
  7  8  1  0
  8  9  2  0
  9 10  1  0
 10 11  1  0
 10 12  2  0
  4 13  1  0
 13 14  1  0
 13 15  2  0
 12  6  1  0
M  ISO  3   1   1   3   3  14   2
M  END
>  <symbol>  (900) 
Phe_3I

>  <m_abbr>  (900) 
Phe_3I

>  <m_name>  (900) 
L-3-iodophenylalanine

>  <m_type>  (900) 
aa

>  <m_subtype>  (900) 
modified

>  <m_Rgroups>  (900) 
[H],[OH],[H]

>  <m_chem_types>  (900) 
1:backbone_n,2:backbone_c,3:backbone_n_mod

>  <m_activation_policy>  (900) 
canonical-sites-v1

$$$$

     RDKit          2D

 15 15  0  0  0  0  0  0  0  0999 V2000
   -2.9107    2.0342    0.0000 R   0  0  0  0  0  1  0  0  0  0  0  0
   -1.6606    1.2052    0.0000 N   0  0  0  0  0  0  0  0  0  0  0  0
   -0.3176    1.8733    0.0000 R   0  0  0  0  0  1  0  0  0  0  0  0
   -1.7535   -0.2919    0.0000 C   0  0  0  0  0  0  0  0  0  0  0  0
   -0.5034   -1.1210    0.0000 C   0  0  0  0  0  0  0  0  0  0  0  0
    0.8396   -0.4529    0.0000 C   0  0  0  0  0  0  0  0  0  0  0  0
    0.9325    1.0442    0.0000 C   0  0  0  0  0  0  0  0  0  0  0  0
    2.2755    1.7123    0.0000 C   0  0  0  0  0  0  0  0  0  0  0  0
    3.5256    0.8833    0.0000 C   0  0  0  0  0  0  0  0  0  0  0  0
    3.4327   -0.6138    0.0000 C   0  0  0  0  0  0  0  0  0  0  0  0
    4.6828   -1.4428    0.0000 I   0  0  0  0  0  0  0  0  0  0  0  0
    2.0897   -1.2819    0.0000 C   0  0  0  0  0  0  0  0  0  0  0  0
   -3.0965   -0.9600    0.0000 C   0  0  0  0  0  0  0  0  0  0  0  0
   -4.3466   -0.1310    0.0000 R   0  0  0  0  0  1  0  0  0  0  0  0
   -3.1894   -2.4572    0.0000 O   0  0  0  0  0  0  0  0  0  0  0  0
  1  2  1  0
  2  3  1  0
  2  4  1  0
  4  5  1  6
  5  6  1  0
  6  7  2  0
  7  8  1  0
  8  9  2  0
  9 10  1  0
 10 11  1  0
 10 12  2  0
  4 13  1  0
 13 14  1  0
 13 15  2  0
 12  6  1  0
M  ISO  3   1   1   3   3  14   2
M  END
>  <symbol>  (901) 
D_Phe_3I

>  <m_abbr>  (901) 
D_Phe_3I

>  <m_name>  (901) 
D-3-iodophenylalanine

>  <m_type>  (901) 
aa

>  <m_subtype>  (901) 
modified

>  <m_Rgroups>  (901) 
[H],[OH],[H]

>  <m_chem_types>  (901) 
1:backbone_n,2:backbone_c,3:backbone_n_mod

>  <m_activation_policy>  (901) 
canonical-sites-v1

$$$$

     RDKit          2D

 13 13  0  0  0  0  0  0  0  0999 V2000
   -1.7243   -2.4323    0.0000 R   0  0  0  0  0  1  0  0  0  0  0  0
   -0.9590   -1.1422    0.0000 N   0  0  0  0  0  0  0  0  0  0  0  0
    0.5345   -1.0030    0.0000 C   0  0  0  0  0  0  0  0  0  0  0  0
    0.8637    0.4604    0.0000 C   0  0  0  0  0  0  0  0  0  0  0  0
    2.2411    1.0543    0.0000 O   0  0  0  0  0  0  0  0  0  0  0  0
    3.4442    0.1584    0.0000 C   0  0  0  0  0  0  0  0  0  0  0  0
    4.8216    0.7523    0.0000 C   0  0  0  0  0  0  0  0  0  0  0  0
    3.2698   -1.3315    0.0000 O   0  0  0  0  0  0  0  0  0  0  0  0
   -0.4264    1.2257    0.0000 C   0  0  0  0  0  0  0  0  0  0  0  0
   -1.5529    0.2353    0.0000 C   0  0  0  0  0  0  0  0  0  0  0  0
   -3.0163    0.5644    0.0000 C   0  0  0  0  0  0  0  0  0  0  0  0
   -3.4630    1.9964    0.0000 R   0  0  0  0  0  1  0  0  0  0  0  0
   -4.0331   -0.5384    0.0000 O   0  0  0  0  0  0  0  0  0  0  0  0
  1  2  1  0
  2  3  1  0
  3  4  1  0
  4  5  1  6
  5  6  1  0
  6  7  1  0
  6  8  2  0
  4  9  1  0
  9 10  1  0
 10 11  1  6
 11 12  1  0
 11 13  2  0
 10  2  1  0
M  ISO  2   1   1  12   2
M  END
>  <symbol>  (902) 
Pro_4OAc

>  <m_abbr>  (902) 
Pro_4OAc

>  <m_name>  (902) 
L-trans-4-acetoxypyrrolidine-2-carboxylic acid

>  <m_type>  (902) 
aa

>  <m_subtype>  (902) 
modified

>  <m_Rgroups>  (902) 
[H],[OH]

>  <m_chem_types>  (902) 
1:backbone_n,2:backbone_c

>  <m_activation_policy>  (902) 
canonical-sites-v1

$$$$

     RDKit          2D

 13 13  0  0  0  0  0  0  0  0999 V2000
   -1.7243   -2.4323    0.0000 R   0  0  0  0  0  1  0  0  0  0  0  0
   -0.9590   -1.1422    0.0000 N   0  0  0  0  0  0  0  0  0  0  0  0
    0.5345   -1.0030    0.0000 C   0  0  0  0  0  0  0  0  0  0  0  0
    0.8637    0.4604    0.0000 C   0  0  0  0  0  0  0  0  0  0  0  0
    2.2411    1.0543    0.0000 O   0  0  0  0  0  0  0  0  0  0  0  0
    3.4442    0.1584    0.0000 C   0  0  0  0  0  0  0  0  0  0  0  0
    4.8216    0.7523    0.0000 C   0  0  0  0  0  0  0  0  0  0  0  0
    3.2698   -1.3315    0.0000 O   0  0  0  0  0  0  0  0  0  0  0  0
   -0.4264    1.2257    0.0000 C   0  0  0  0  0  0  0  0  0  0  0  0
   -1.5529    0.2353    0.0000 C   0  0  0  0  0  0  0  0  0  0  0  0
   -3.0163    0.5644    0.0000 C   0  0  0  0  0  0  0  0  0  0  0  0
   -3.4630    1.9964    0.0000 R   0  0  0  0  0  1  0  0  0  0  0  0
   -4.0331   -0.5384    0.0000 O   0  0  0  0  0  0  0  0  0  0  0  0
  1  2  1  0
  2  3  1  0
  3  4  1  0
  4  5  1  6
  5  6  1  0
  6  7  1  0
  6  8  2  0
  4  9  1  0
  9 10  1  0
 10 11  1  1
 11 12  1  0
 11 13  2  0
 10  2  1  0
M  ISO  2   1   1  12   2
M  END
>  <symbol>  (903) 
D_Pro_4OAc

>  <m_abbr>  (903) 
D_Pro_4OAc

>  <m_name>  (903) 
D-trans-4-acetoxypyrrolidine-2-carboxylic acid

>  <m_type>  (903) 
aa

>  <m_subtype>  (903) 
modified

>  <m_Rgroups>  (903) 
[H],[OH]

>  <m_chem_types>  (903) 
1:backbone_n,2:backbone_c

>  <m_activation_policy>  (903) 
canonical-sites-v1

$$$$

     RDKit          2D

 11 11  0  0  0  0  0  0  0  0999 V2000
   -1.0596   -2.4555    0.0000 R   0  0  0  0  0  1  0  0  0  0  0  0
   -0.2576   -1.1879    0.0000 N   0  0  0  0  0  0  0  0  0  0  0  0
    1.2393   -1.0917    0.0000 C   0  0  0  0  0  0  0  0  0  0  0  0
    1.6103    0.3617    0.0000 C   0  0  0  0  0  0  0  0  0  0  0  0
    3.0042    0.9158    0.0000 O   0  0  0  0  0  0  0  0  0  0  0  0
    4.1811   -0.0143    0.0000 R   0  0  0  0  0  1  0  0  0  0  0  0
    0.3427    1.1637    0.0000 C   0  0  0  0  0  0  0  0  0  0  0  0
   -0.8117    0.2060    0.0000 C   0  0  0  0  0  0  0  0  0  0  0  0
   -2.2651    0.5770    0.0000 C   0  0  0  0  0  0  0  0  0  0  0  0
   -2.6705    2.0212    0.0000 R   0  0  0  0  0  1  0  0  0  0  0  0
   -3.3131   -0.4961    0.0000 O   0  0  0  0  0  0  0  0  0  0  0  0
  1  2  1  0
  2  3  1  0
  3  4  1  0
  4  5  1  1
  5  6  1  0
  4  7  1  0
  7  8  1  0
  8  9  1  1
  9 10  1  0
  9 11  2  0
  8  2  1  0
M  ISO  3   1   1   6   4  10   2
M  END
>  <symbol>  (904) 
D_Pro_3OH_c

>  <m_abbr>  (904) 
D_Pro_3OH_c

>  <m_name>  (904) 
D-cis-3-hydroxypyrrolidine-2-carboxylic acid

>  <m_type>  (904) 
aa

>  <m_subtype>  (904) 
modified

>  <m_Rgroups>  (904) 
[H],[OH],None,[H]

>  <m_chem_types>  (904) 
1:backbone_n,2:backbone_c,4:hydroxyl

>  <m_activation_policy>  (904) 
canonical-sites-v1

$$$$

     RDKit          2D

 11 11  0  0  0  0  0  0  0  0999 V2000
   -1.0596   -2.4555    0.0000 R   0  0  0  0  0  1  0  0  0  0  0  0
   -0.2576   -1.1879    0.0000 N   0  0  0  0  0  0  0  0  0  0  0  0
    1.2393   -1.0917    0.0000 C   0  0  0  0  0  0  0  0  0  0  0  0
    1.6103    0.3617    0.0000 C   0  0  0  0  0  0  0  0  0  0  0  0
    3.0042    0.9158    0.0000 O   0  0  0  0  0  0  0  0  0  0  0  0
    4.1811   -0.0143    0.0000 R   0  0  0  0  0  1  0  0  0  0  0  0
    0.3427    1.1637    0.0000 C   0  0  0  0  0  0  0  0  0  0  0  0
   -0.8117    0.2060    0.0000 C   0  0  0  0  0  0  0  0  0  0  0  0
   -2.2651    0.5770    0.0000 C   0  0  0  0  0  0  0  0  0  0  0  0
   -2.6705    2.0212    0.0000 R   0  0  0  0  0  1  0  0  0  0  0  0
   -3.3131   -0.4961    0.0000 O   0  0  0  0  0  0  0  0  0  0  0  0
  1  2  1  0
  2  3  1  0
  3  4  1  0
  4  5  1  6
  5  6  1  0
  4  7  1  0
  7  8  1  0
  8  9  1  1
  9 10  1  0
  9 11  2  0
  8  2  1  0
M  ISO  3   1   1   6   4  10   2
M  END
>  <symbol>  (905) 
D_Pro_3OH_t

>  <m_abbr>  (905) 
D_Pro_3OH_t

>  <m_name>  (905) 
D-trans-3-hydroxypyrrolidine-2-carboxylic acid

>  <m_type>  (905) 
aa

>  <m_subtype>  (905) 
modified

>  <m_Rgroups>  (905) 
[H],[OH],None,[H]

>  <m_chem_types>  (905) 
1:backbone_n,2:backbone_c,4:hydroxyl

>  <m_activation_policy>  (905) 
canonical-sites-v1

$$$$

     RDKit          2D

 12 12  0  0  0  0  0  0  0  0999 V2000
   -2.2215   -2.1485    0.0000 R   0  0  0  0  0  1  0  0  0  0  0  0
   -0.8947   -1.4487    0.0000 N   0  0  0  0  0  0  0  0  0  0  0  0
    0.4513   -2.1108    0.0000 C   0  0  0  0  0  0  0  0  0  0  0  0
    1.4969   -1.0353    0.0000 C   0  0  0  0  0  0  0  0  0  0  0  0
    2.9816   -1.2490    0.0000 C   0  0  0  0  0  0  0  0  0  0  0  0
    0.7971    0.2915    0.0000 C   0  0  0  0  0  0  0  0  0  0  0  0
    1.4592    1.6375    0.0000 O   0  0  0  0  0  0  0  0  0  0  0  0
    2.9559    1.7371    0.0000 R   0  0  0  0  0  1  0  0  0  0  0  0
   -0.6809    0.0360    0.0000 C   0  0  0  0  0  0  0  0  0  0  0  0
   -1.7565    1.0816    0.0000 C   0  0  0  0  0  0  0  0  0  0  0  0
   -1.3887    2.5358    0.0000 R   0  0  0  0  0  1  0  0  0  0  0  0
   -3.1997    0.6730    0.0000 O   0  0  0  0  0  0  0  0  0  0  0  0
  1  2  1  0
  2  3  1  0
  3  4  1  0
  4  5  1  0
  4  6  1  0
  6  7  1  0
  7  8  1  0
  6  9  1  0
  9 10  1  1
 10 11  1  0
 10 12  2  0
  9  2  1  0
M  ISO  3   1   1   8   4  11   2
M  END
>  <symbol>  (906) 
D_Pro_4Me3OH

>  <m_abbr>  (906) 
D_Pro_4Me3OH

>  <m_name>  (906) 
D-4-methyl-4-hydroxyproline

>  <m_type>  (906) 
aa

>  <m_subtype>  (906) 
modified

>  <m_Rgroups>  (906) 
[H],[OH],None,[H]

>  <m_chem_types>  (906) 
1:backbone_n,2:backbone_c,4:hydroxyl

>  <m_activation_policy>  (906) 
canonical-sites-v1

$$$$

     RDKit          2D

  8  8  0  0  0  0  0  0  0  0999 V2000
   -1.7473   -1.8123    0.0000 R   0  0  0  0  0  1  0  0  0  0  0  0
   -1.3130   -0.3765    0.0000 N   0  0  0  0  0  0  0  0  0  0  0  0
   -2.0211    0.9458    0.0000 C   0  0  0  0  0  0  0  0  0  0  0  0
   -0.6988    1.6539    0.0000 C   0  0  0  0  0  0  0  0  0  0  0  0
    0.0093    0.3316    0.0000 C   0  0  0  0  0  0  0  0  0  0  0  0
    1.4451   -0.1027    0.0000 C   0  0  0  0  0  0  0  0  0  0  0  0
    1.7868   -1.5633    0.0000 R   0  0  0  0  0  1  0  0  0  0  0  0
    2.5391    0.9235    0.0000 O   0  0  0  0  0  0  0  0  0  0  0  0
  1  2  1  0
  2  3  1  0
  3  4  1  0
  4  5  1  0
  5  6  1  6
  6  7  1  0
  6  8  2  0
  5  2  1  0
M  ISO  2   1   1   7   2
M  END
>  <symbol>  (907) 
D_Aze

>  <m_abbr>  (907) 
D_Aze

>  <m_name>  (907) 
D-azetidine-2-carboxylic acid

>  <m_type>  (907) 
aa

>  <m_subtype>  (907) 
modified

>  <m_Rgroups>  (907) 
[H],[OH]

>  <m_chem_types>  (907) 
1:backbone_n,2:backbone_c

>  <m_activation_policy>  (907) 
canonical-sites-v1

$$$$

     RDKit          2D

 17 17  0  0  0  0  0  0  0  0999 V2000
   -4.7396   -1.6355    0.0000 R   0  0  0  0  0  1  0  0  0  0  0  0
   -3.2776   -1.3003    0.0000 N   0  0  0  0  0  0  0  0  0  0  0  0
   -2.2562   -2.3989    0.0000 R   0  0  0  0  0  1  0  0  0  0  0  0
   -2.8369    0.1335    0.0000 C   0  0  0  0  0  0  0  0  0  0  0  0
   -1.3748    0.4687    0.0000 C   0  0  0  0  0  0  0  0  0  0  0  0
   -0.3535   -0.6298    0.0000 C   0  0  0  0  0  0  0  0  0  0  0  0
    1.1086   -0.2946    0.0000 C   0  0  0  0  0  0  0  0  0  0  0  0
    1.5493    1.1392    0.0000 C   0  0  0  0  0  0  0  0  0  0  0  0
    3.0113    1.4744    0.0000 C   0  0  0  0  0  0  0  0  0  0  0  0
    4.0327    0.3759    0.0000 C   0  0  0  0  0  0  0  0  0  0  0  0
    5.4948    0.7111    0.0000 O   0  0  0  0  0  0  0  0  0  0  0  0
    6.5161   -0.3874    0.0000 R   0  0  0  0  0  1  0  0  0  0  0  0
    3.5920   -1.0579    0.0000 C   0  0  0  0  0  0  0  0  0  0  0  0
    2.1299   -1.3931    0.0000 C   0  0  0  0  0  0  0  0  0  0  0  0
   -3.8582    1.2321    0.0000 C   0  0  0  0  0  0  0  0  0  0  0  0
   -5.3203    0.8968    0.0000 R   0  0  0  0  0  1  0  0  0  0  0  0
   -3.4175    2.6659    0.0000 O   0  0  0  0  0  0  0  0  0  0  0  0
  1  2  1  0
  2  3  1  0
  2  4  1  0
  4  5  1  6
  5  6  1  0
  6  7  1  0
  7  8  1  0
  8  9  2  0
  9 10  1  0
 10 11  1  0
 11 12  1  0
 10 13  2  0
 13 14  1  0
  4 15  1  0
 15 16  1  0
 15 17  2  0
 14  7  2  0
M  ISO  4   1   1   3   3  12   4  16   2
M  END
>  <symbol>  (908) 
hTyr

>  <m_abbr>  (908) 
hTyr

>  <m_name>  (908) 
L-homotyrosine

>  <m_type>  (908) 
aa

>  <m_subtype>  (908) 
modified

>  <m_Rgroups>  (908) 
[H],[OH],[H],[H]

>  <m_chem_types>  (908) 
1:backbone_n,2:backbone_c,3:backbone_n_mod,4:aryl_phenol_o

>  <m_activation_policy>  (908) 
canonical-sites-v1

$$$$

     RDKit          2D

 17 17  0  0  0  0  0  0  0  0999 V2000
   -4.7396   -1.6355    0.0000 R   0  0  0  0  0  1  0  0  0  0  0  0
   -3.2776   -1.3003    0.0000 N   0  0  0  0  0  0  0  0  0  0  0  0
   -2.2562   -2.3989    0.0000 R   0  0  0  0  0  1  0  0  0  0  0  0
   -2.8369    0.1335    0.0000 C   0  0  0  0  0  0  0  0  0  0  0  0
   -1.3748    0.4687    0.0000 C   0  0  0  0  0  0  0  0  0  0  0  0
   -0.3535   -0.6298    0.0000 C   0  0  0  0  0  0  0  0  0  0  0  0
    1.1086   -0.2946    0.0000 C   0  0  0  0  0  0  0  0  0  0  0  0
    1.5493    1.1392    0.0000 C   0  0  0  0  0  0  0  0  0  0  0  0
    3.0113    1.4744    0.0000 C   0  0  0  0  0  0  0  0  0  0  0  0
    4.0327    0.3759    0.0000 C   0  0  0  0  0  0  0  0  0  0  0  0
    5.4948    0.7111    0.0000 O   0  0  0  0  0  0  0  0  0  0  0  0
    6.5161   -0.3874    0.0000 R   0  0  0  0  0  1  0  0  0  0  0  0
    3.5920   -1.0579    0.0000 C   0  0  0  0  0  0  0  0  0  0  0  0
    2.1299   -1.3931    0.0000 C   0  0  0  0  0  0  0  0  0  0  0  0
   -3.8582    1.2321    0.0000 C   0  0  0  0  0  0  0  0  0  0  0  0
   -5.3203    0.8968    0.0000 R   0  0  0  0  0  1  0  0  0  0  0  0
   -3.4175    2.6659    0.0000 O   0  0  0  0  0  0  0  0  0  0  0  0
  1  2  1  0
  2  3  1  0
  2  4  1  0
  4  5  1  1
  5  6  1  0
  6  7  1  0
  7  8  1  0
  8  9  2  0
  9 10  1  0
 10 11  1  0
 11 12  1  0
 10 13  2  0
 13 14  1  0
  4 15  1  0
 15 16  1  0
 15 17  2  0
 14  7  2  0
M  ISO  4   1   1   3   3  12   4  16   2
M  END
>  <symbol>  (909) 
D_hTyr

>  <m_abbr>  (909) 
D_hTyr

>  <m_name>  (909) 
D-homotyrosine

>  <m_type>  (909) 
aa

>  <m_subtype>  (909) 
modified

>  <m_Rgroups>  (909) 
[H],[OH],[H],[H]

>  <m_chem_types>  (909) 
1:backbone_n,2:backbone_c,3:backbone_n_mod,4:aryl_phenol_o

>  <m_activation_policy>  (909) 
canonical-sites-v1

$$$$

     RDKit          2D

 19 20  0  0  0  0  0  0  0  0999 V2000
   -4.6728    2.0158    0.0000 R   0  0  0  0  0  1  0  0  0  0  0  0
   -3.2913    1.4314    0.0000 N   0  0  0  0  0  0  0  0  0  0  0  0
   -2.0945    2.3356    0.0000 R   0  0  0  0  0  1  0  0  0  0  0  0
   -3.1067   -0.0572    0.0000 C   0  0  0  0  0  0  0  0  0  0  0  0
   -1.7252   -0.6416    0.0000 C   0  0  0  0  0  0  0  0  0  0  0  0
   -0.5284    0.2626    0.0000 C   0  0  0  0  0  0  0  0  0  0  0  0
    0.8531   -0.3218    0.0000 C   0  0  0  0  0  0  0  0  0  0  0  0
    1.1923   -1.7829    0.0000 C   0  0  0  0  0  0  0  0  0  0  0  0
    2.6868   -1.9118    0.0000 N   0  0  0  0  0  0  0  0  0  0  0  0
    3.4609   -3.1966    0.0000 R   0  0  0  0  0  1  0  0  0  0  0  0
    3.2712   -0.5303    0.0000 C   0  0  0  0  0  0  0  0  0  0  0  0
    4.6888   -0.0402    0.0000 C   0  0  0  0  0  0  0  0  0  0  0  0
    4.9732    1.4325    0.0000 C   0  0  0  0  0  0  0  0  0  0  0  0
    3.8400    2.4152    0.0000 C   0  0  0  0  0  0  0  0  0  0  0  0
    2.4223    1.9251    0.0000 C   0  0  0  0  0  0  0  0  0  0  0  0
    2.1379    0.4524    0.0000 C   0  0  0  0  0  0  0  0  0  0  0  0
   -4.3036   -0.9614    0.0000 C   0  0  0  0  0  0  0  0  0  0  0  0
   -5.6850   -0.3770    0.0000 R   0  0  0  0  0  1  0  0  0  0  0  0
   -4.1189   -2.4500    0.0000 O   0  0  0  0  0  0  0  0  0  0  0  0
  1  2  1  0
  2  3  1  0
  2  4  1  0
  4  5  1  6
  5  6  1  0
  6  7  1  0
  7  8  2  0
  8  9  1  0
  9 10  1  0
  9 11  1  0
 11 12  2  0
 12 13  1  0
 13 14  2  0
 14 15  1  0
 15 16  2  0
  4 17  1  0
 17 18  1  0
 17 19  2  0
 16  7  1  0
 16 11  1  0
M  ISO  4   1   1   3   3  10   4  18   2
M  END
>  <symbol>  (910) 
D_hTrp

>  <m_abbr>  (910) 
D_hTrp

>  <m_name>  (910) 
D-homotryptophan

>  <m_type>  (910) 
aa

>  <m_subtype>  (910) 
modified

>  <m_Rgroups>  (910) 
[H],[OH],[H],[H]

>  <m_chem_types>  (910) 
1:backbone_n,2:backbone_c,3:backbone_n_mod,4:aromatic_nh

>  <m_activation_policy>  (910) 
canonical-sites-v1

$$$$

     RDKit          2D

 15 15  0  0  0  0  0  0  0  0999 V2000
   -3.9076   -1.7945    0.0000 R   0  0  0  0  0  1  0  0  0  0  0  0
   -2.4721   -1.3595    0.0000 N   0  0  0  0  0  0  0  0  0  0  0  0
   -1.3775   -2.3851    0.0000 R   0  0  0  0  0  1  0  0  0  0  0  0
   -2.1311    0.1012    0.0000 C   0  0  0  0  0  0  0  0  0  0  0  0
   -0.6956    0.5363    0.0000 C   0  0  0  0  0  0  0  0  0  0  0  0
    0.3990   -0.4894    0.0000 C   0  0  0  0  0  0  0  0  0  0  0  0
    1.8345   -0.0543    0.0000 C   0  0  0  0  0  0  0  0  0  0  0  0
    3.0302   -0.9599    0.0000 C   0  0  0  0  0  0  0  0  0  0  0  0
    4.2611   -0.1026    0.0000 N   0  0  0  0  0  0  0  0  0  0  0  0
    5.6781   -0.5944    0.0000 R   0  0  0  0  0  1  0  0  0  0  0  0
    3.8260    1.3329    0.0000 C   0  0  0  0  0  0  0  0  0  0  0  0
    2.3263    1.3628    0.0000 N   0  0  0  0  0  0  0  0  0  0  0  0
   -3.2256    1.1269    0.0000 C   0  0  0  0  0  0  0  0  0  0  0  0
   -4.6611    0.6919    0.0000 R   0  0  0  0  0  1  0  0  0  0  0  0
   -2.8846    2.5876    0.0000 O   0  0  0  0  0  0  0  0  0  0  0  0
  1  2  1  0
  2  3  1  0
  2  4  1  0
  4  5  1  1
  5  6  1  0
  6  7  1  0
  7  8  2  0
  8  9  1  0
  9 10  1  0
  9 11  1  0
 11 12  2  0
  4 13  1  0
 13 14  1  0
 13 15  2  0
 12  7  1  0
M  ISO  4   1   1   3   3  10   4  14   2
M  END
>  <symbol>  (911) 
D_hHis

>  <m_abbr>  (911) 
D_hHis

>  <m_name>  (911) 
D-homohistidine

>  <m_type>  (911) 
aa

>  <m_subtype>  (911) 
modified

>  <m_Rgroups>  (911) 
[H],[OH],[H],[H]

>  <m_chem_types>  (911) 
1:backbone_n,2:backbone_c,3:backbone_n_mod,4:aromatic_nh

>  <m_activation_policy>  (911) 
canonical-sites-v1

$$$$

     RDKit          2D

 12 11  0  0  0  0  0  0  0  0999 V2000
   -3.3474    0.4984    0.0000 R   0  0  0  0  0  1  0  0  0  0  0  0
   -2.3034   -0.5787    0.0000 N   0  0  0  0  0  0  0  0  0  0  0  0
   -2.7142   -2.0214    0.0000 R   0  0  0  0  0  1  0  0  0  0  0  0
   -0.8486   -0.2132    0.0000 C   0  0  0  0  0  0  0  0  0  0  0  0
    0.1953   -1.2903    0.0000 C   0  0  0  0  0  0  0  0  0  0  0  0
    1.6501   -0.9248    0.0000 C   0  0  0  0  0  0  0  0  0  0  0  0
    2.6940   -2.0019    0.0000 C   0  0  0  0  0  0  0  0  0  0  0  0
    2.0609    0.5178    0.0000 O   0  0  0  0  0  0  0  0  0  0  0  0
    3.5157    0.8834    0.0000 R   0  0  0  0  0  1  0  0  0  0  0  0
   -0.4378    1.2294    0.0000 C   0  0  0  0  0  0  0  0  0  0  0  0
    1.0170    1.5949    0.0000 R   0  0  0  0  0  1  0  0  0  0  0  0
   -1.4817    2.3065    0.0000 O   0  0  0  0  0  0  0  0  0  0  0  0
  1  2  1  0
  2  3  1  0
  2  4  1  0
  4  5  1  6
  5  6  1  0
  6  7  1  6
  6  8  1  0
  8  9  1  0
  4 10  1  0
 10 11  1  0
 10 12  2  0
M  ISO  4   1   1   3   3   9   4  11   2
M  END
>  <symbol>  (912) 
hThr

>  <m_abbr>  (912) 
hThr

>  <m_name>  (912) 
L-homothreonine

>  <m_type>  (912) 
aa

>  <m_subtype>  (912) 
modified

>  <m_Rgroups>  (912) 
[H],[OH],[H],[H]

>  <m_chem_types>  (912) 
1:backbone_n,2:backbone_c,3:backbone_n_mod,4:hydroxyl

>  <m_activation_policy>  (912) 
canonical-sites-v1

$$$$

     RDKit          2D

 12 11  0  0  0  0  0  0  0  0999 V2000
   -3.3474    0.4984    0.0000 R   0  0  0  0  0  1  0  0  0  0  0  0
   -2.3034   -0.5787    0.0000 N   0  0  0  0  0  0  0  0  0  0  0  0
   -2.7142   -2.0214    0.0000 R   0  0  0  0  0  1  0  0  0  0  0  0
   -0.8486   -0.2132    0.0000 C   0  0  0  0  0  0  0  0  0  0  0  0
    0.1953   -1.2903    0.0000 C   0  0  0  0  0  0  0  0  0  0  0  0
    1.6501   -0.9248    0.0000 C   0  0  0  0  0  0  0  0  0  0  0  0
    2.6940   -2.0019    0.0000 C   0  0  0  0  0  0  0  0  0  0  0  0
    2.0609    0.5178    0.0000 O   0  0  0  0  0  0  0  0  0  0  0  0
    3.5157    0.8834    0.0000 R   0  0  0  0  0  1  0  0  0  0  0  0
   -0.4378    1.2294    0.0000 C   0  0  0  0  0  0  0  0  0  0  0  0
    1.0170    1.5949    0.0000 R   0  0  0  0  0  1  0  0  0  0  0  0
   -1.4817    2.3065    0.0000 O   0  0  0  0  0  0  0  0  0  0  0  0
  1  2  1  0
  2  3  1  0
  2  4  1  0
  4  5  1  1
  5  6  1  0
  6  7  1  6
  6  8  1  0
  8  9  1  0
  4 10  1  0
 10 11  1  0
 10 12  2  0
M  ISO  4   1   1   3   3   9   4  11   2
M  END
>  <symbol>  (913) 
D_hThr

>  <m_abbr>  (913) 
D_hThr

>  <m_name>  (913) 
D-homothreonine

>  <m_type>  (913) 
aa

>  <m_subtype>  (913) 
modified

>  <m_Rgroups>  (913) 
[H],[OH],[H],[H]

>  <m_chem_types>  (913) 
1:backbone_n,2:backbone_c,3:backbone_n_mod,4:hydroxyl

>  <m_activation_policy>  (913) 
canonical-sites-v1

$$$$

     RDKit          2D

 15 15  0  0  0  0  0  0  0  0999 V2000
   -3.9151   -1.6710    0.0000 R   0  0  0  0  0  1  0  0  0  0  0  0
   -2.4580   -1.3145    0.0000 N   0  0  0  0  0  0  0  0  0  0  0  0
   -1.4208   -2.3982    0.0000 R   0  0  0  0  0  1  0  0  0  0  0  0
   -2.0382    0.1255    0.0000 C   0  0  0  0  0  0  0  0  0  0  0  0
   -0.5812    0.4819    0.0000 C   0  0  0  0  0  0  0  0  0  0  0  0
    0.4560   -0.6017    0.0000 C   0  0  0  0  0  0  0  0  0  0  0  0
    1.9131   -0.2453    0.0000 C   0  0  0  0  0  0  0  0  0  0  0  0
    2.3329    1.1948    0.0000 C   0  0  0  0  0  0  0  0  0  0  0  0
    3.7900    1.5512    0.0000 C   0  0  0  0  0  0  0  0  0  0  0  0
    4.8271    0.4676    0.0000 C   0  0  0  0  0  0  0  0  0  0  0  0
    4.4073   -0.9725    0.0000 C   0  0  0  0  0  0  0  0  0  0  0  0
    2.9503   -1.3289    0.0000 C   0  0  0  0  0  0  0  0  0  0  0  0
   -3.0754    1.2091    0.0000 C   0  0  0  0  0  0  0  0  0  0  0  0
   -4.5324    0.8527    0.0000 R   0  0  0  0  0  1  0  0  0  0  0  0
   -2.6556    2.6492    0.0000 O   0  0  0  0  0  0  0  0  0  0  0  0
  1  2  1  0
  2  3  1  0
  2  4  1  0
  4  5  1  6
  5  6  1  0
  6  7  1  0
  7  8  1  0
  8  9  1  0
  9 10  1  0
 10 11  1  0
 11 12  1  0
  4 13  1  0
 13 14  1  0
 13 15  2  0
 12  7  1  0
M  ISO  3   1   1   3   3  14   2
M  END
>  <symbol>  (914) 
hCha

>  <m_abbr>  (914) 
hCha

>  <m_name>  (914) 
L-homo-cyclohexylalanine

>  <m_type>  (914) 
aa

>  <m_subtype>  (914) 
modified

>  <m_Rgroups>  (914) 
[H],[OH],[H]

>  <m_chem_types>  (914) 
1:backbone_n,2:backbone_c,3:backbone_n_mod

>  <m_activation_policy>  (914) 
canonical-sites-v1

$$$$

     RDKit          2D

 15 15  0  0  0  0  0  0  0  0999 V2000
   -3.9151   -1.6710    0.0000 R   0  0  0  0  0  1  0  0  0  0  0  0
   -2.4580   -1.3145    0.0000 N   0  0  0  0  0  0  0  0  0  0  0  0
   -1.4208   -2.3982    0.0000 R   0  0  0  0  0  1  0  0  0  0  0  0
   -2.0382    0.1255    0.0000 C   0  0  0  0  0  0  0  0  0  0  0  0
   -0.5812    0.4819    0.0000 C   0  0  0  0  0  0  0  0  0  0  0  0
    0.4560   -0.6017    0.0000 C   0  0  0  0  0  0  0  0  0  0  0  0
    1.9131   -0.2453    0.0000 C   0  0  0  0  0  0  0  0  0  0  0  0
    2.3329    1.1948    0.0000 C   0  0  0  0  0  0  0  0  0  0  0  0
    3.7900    1.5512    0.0000 C   0  0  0  0  0  0  0  0  0  0  0  0
    4.8271    0.4676    0.0000 C   0  0  0  0  0  0  0  0  0  0  0  0
    4.4073   -0.9725    0.0000 C   0  0  0  0  0  0  0  0  0  0  0  0
    2.9503   -1.3289    0.0000 C   0  0  0  0  0  0  0  0  0  0  0  0
   -3.0754    1.2091    0.0000 C   0  0  0  0  0  0  0  0  0  0  0  0
   -4.5324    0.8527    0.0000 R   0  0  0  0  0  1  0  0  0  0  0  0
   -2.6556    2.6492    0.0000 O   0  0  0  0  0  0  0  0  0  0  0  0
  1  2  1  0
  2  3  1  0
  2  4  1  0
  4  5  1  1
  5  6  1  0
  6  7  1  0
  7  8  1  0
  8  9  1  0
  9 10  1  0
 10 11  1  0
 11 12  1  0
  4 13  1  0
 13 14  1  0
 13 15  2  0
 12  7  1  0
M  ISO  3   1   1   3   3  14   2
M  END
>  <symbol>  (915) 
D_hCha

>  <m_abbr>  (915) 
D_hCha

>  <m_name>  (915) 
D-homo-cyclohexylalanine

>  <m_type>  (915) 
aa

>  <m_subtype>  (915) 
modified

>  <m_Rgroups>  (915) 
[H],[OH],[H]

>  <m_chem_types>  (915) 
1:backbone_n,2:backbone_c,3:backbone_n_mod

>  <m_activation_policy>  (915) 
canonical-sites-v1

$$$$

     RDKit          2D

  9  8  0  0  0  0  0  0  0  0999 V2000
   -2.2062    1.7302    0.0000 R   0  0  0  0  0  1  0  0  0  0  0  0
   -1.9487    0.2525    0.0000 N   0  0  0  0  0  0  0  0  0  0  0  0
   -3.0997   -0.7094    0.0000 R   0  0  0  0  0  1  0  0  0  0  0  0
   -0.5402   -0.2633    0.0000 C   0  0  0  0  0  0  0  0  0  0  0  0
   -0.2826   -1.7410    0.0000 C   0  0  0  0  0  0  0  0  0  0  0  0
    0.6108    0.6986    0.0000 C   0  0  0  0  0  0  0  0  0  0  0  0
    2.0193    0.1828    0.0000 C   0  0  0  0  0  0  0  0  0  0  0  0
    3.1703    1.1447    0.0000 R   0  0  0  0  0  1  0  0  0  0  0  0
    2.2769   -1.2950    0.0000 O   0  0  0  0  0  0  0  0  0  0  0  0
  1  2  1  0
  2  3  1  0
  2  4  1  0
  4  5  1  6
  4  6  1  0
  6  7  1  0
  7  8  1  0
  7  9  2  0
M  ISO  3   1   1   3   3   8   2
M  END
>  <symbol>  (916) 
bAbu

>  <m_abbr>  (916) 
bAbu

>  <m_name>  (916) 
L-3-aminobutyric acid (beta-aminobutyric acid)

>  <m_type>  (916) 
aa

>  <m_subtype>  (916) 
modified

>  <m_Rgroups>  (916) 
[H],[OH],[H]

>  <m_chem_types>  (916) 
1:backbone_n,2:backbone_c,3:backbone_n_mod

>  <m_activation_policy>  (916) 
canonical-sites-v1

$$$$

     RDKit          2D

 13 12  0  0  0  0  0  0  0  0999 V2000
   -1.0398    2.4415    0.0000 R   0  0  0  0  0  1  0  0  0  0  0  0
   -1.8741    1.1949    0.0000 N   0  0  0  0  0  0  0  0  0  0  0  0
   -3.3709    1.2942    0.0000 R   0  0  0  0  0  1  0  0  0  0  0  0
   -1.2118   -0.1509    0.0000 C   0  0  0  0  0  0  0  0  0  0  0  0
   -2.5576   -0.8133    0.0000 C   0  0  0  0  0  0  0  0  0  0  0  0
    0.1341    0.5115    0.0000 C   0  0  0  0  0  0  0  0  0  0  0  0
    1.3806   -0.3228    0.0000 C   0  0  0  0  0  0  0  0  0  0  0  0
    2.7264    0.3395    0.0000 C   0  0  0  0  0  0  0  0  0  0  0  0
    3.9730   -0.4948    0.0000 R   0  0  0  0  0  1  0  0  0  0  0  0
    2.8257    1.8363    0.0000 C   0  0  0  0  0  0  0  0  0  0  0  0
   -0.5494   -1.4967    0.0000 C   0  0  0  0  0  0  0  0  0  0  0  0
    0.9473   -1.5960    0.0000 R   0  0  0  0  0  1  0  0  0  0  0  0
   -1.3837   -2.7433    0.0000 O   0  0  0  0  0  0  0  0  0  0  0  0
  1  2  1  0
  2  3  1  0
  2  4  1  0
  4  5  1  6
  4  6  1  0
  6  7  1  0
  7  8  1  0
  8  9  1  0
  8 10  2  0
  4 11  1  0
 11 12  1  0
 11 13  2  0
M  ISO  4   1   1   3   3   9   4  12   2
M  END
>  <symbol>  (917) 
S4

>  <m_abbr>  (917) 
S4

>  <m_name>  (917) 
(S)-alpha-methyl-4-pentenylglycine (RCM staple)

>  <m_type>  (917) 
aa

>  <m_subtype>  (917) 
modified

>  <m_Rgroups>  (917) 
[H],[OH],[H],[H]

>  <m_chem_types>  (917) 
1:backbone_n,2:backbone_c,3:backbone_n_mod,4:terminal_alkene

>  <m_activation_policy>  (917) 
canonical-sites-v1

$$$$

     RDKit          2D

 13 12  0  0  0  0  0  0  0  0999 V2000
   -1.0398    2.4415    0.0000 R   0  0  0  0  0  1  0  0  0  0  0  0
   -1.8741    1.1949    0.0000 N   0  0  0  0  0  0  0  0  0  0  0  0
   -3.3709    1.2942    0.0000 R   0  0  0  0  0  1  0  0  0  0  0  0
   -1.2118   -0.1509    0.0000 C   0  0  0  0  0  0  0  0  0  0  0  0
   -2.5576   -0.8133    0.0000 C   0  0  0  0  0  0  0  0  0  0  0  0
    0.1341    0.5115    0.0000 C   0  0  0  0  0  0  0  0  0  0  0  0
    1.3806   -0.3228    0.0000 C   0  0  0  0  0  0  0  0  0  0  0  0
    2.7264    0.3395    0.0000 C   0  0  0  0  0  0  0  0  0  0  0  0
    3.9730   -0.4948    0.0000 R   0  0  0  0  0  1  0  0  0  0  0  0
    2.8257    1.8363    0.0000 C   0  0  0  0  0  0  0  0  0  0  0  0
   -0.5494   -1.4967    0.0000 C   0  0  0  0  0  0  0  0  0  0  0  0
    0.9473   -1.5960    0.0000 R   0  0  0  0  0  1  0  0  0  0  0  0
   -1.3837   -2.7433    0.0000 O   0  0  0  0  0  0  0  0  0  0  0  0
  1  2  1  0
  2  3  1  0
  2  4  1  0
  4  5  1  1
  4  6  1  0
  6  7  1  0
  7  8  1  0
  8  9  1  0
  8 10  2  0
  4 11  1  0
 11 12  1  0
 11 13  2  0
M  ISO  4   1   1   3   3   9   4  12   2
M  END
>  <symbol>  (918) 
R4

>  <m_abbr>  (918) 
R4

>  <m_name>  (918) 
(R)-alpha-methyl-4-pentenylglycine (RCM staple)

>  <m_type>  (918) 
aa

>  <m_subtype>  (918) 
modified

>  <m_Rgroups>  (918) 
[H],[OH],[H],[H]

>  <m_chem_types>  (918) 
1:backbone_n,2:backbone_c,3:backbone_n_mod,4:terminal_alkene

>  <m_activation_policy>  (918) 
canonical-sites-v1

$$$$

     RDKit          2D

 15 14  0  0  0  0  0  0  0  0999 V2000
   -1.9831    2.5037    0.0000 R   0  0  0  0  0  1  0  0  0  0  0  0
   -2.8283    1.2645    0.0000 N   0  0  0  0  0  0  0  0  0  0  0  0
   -4.3241    1.3769    0.0000 R   0  0  0  0  0  1  0  0  0  0  0  0
   -2.1777   -0.0871    0.0000 C   0  0  0  0  0  0  0  0  0  0  0  0
   -3.5293   -0.7377    0.0000 C   0  0  0  0  0  0  0  0  0  0  0  0
   -0.8261    0.5635    0.0000 C   0  0  0  0  0  0  0  0  0  0  0  0
    0.4131   -0.2817    0.0000 C   0  0  0  0  0  0  0  0  0  0  0  0
    1.7646    0.3688    0.0000 C   0  0  0  0  0  0  0  0  0  0  0  0
    3.0038   -0.4764    0.0000 C   0  0  0  0  0  0  0  0  0  0  0  0
    4.3554    0.1742    0.0000 C   0  0  0  0  0  0  0  0  0  0  0  0
    5.5946   -0.6710    0.0000 R   0  0  0  0  0  1  0  0  0  0  0  0
    4.4678    1.6700    0.0000 C   0  0  0  0  0  0  0  0  0  0  0  0
   -1.5271   -1.4387    0.0000 C   0  0  0  0  0  0  0  0  0  0  0  0
   -0.0314   -1.5510    0.0000 R   0  0  0  0  0  1  0  0  0  0  0  0
   -2.3724   -2.6779    0.0000 O   0  0  0  0  0  0  0  0  0  0  0  0
  1  2  1  0
  2  3  1  0
  2  4  1  0
  4  5  1  6
  4  6  1  0
  6  7  1  0
  7  8  1  0
  8  9  1  0
  9 10  1  0
 10 11  1  0
 10 12  2  0
  4 13  1  0
 13 14  1  0
 13 15  2  0
M  ISO  4   1   1   3   3  11   4  14   2
M  END
>  <symbol>  (919) 
S6

>  <m_abbr>  (919) 
S6

>  <m_name>  (919) 
(S)-alpha-methyl-6-heptenylglycine (RCM staple)

>  <m_type>  (919) 
aa

>  <m_subtype>  (919) 
modified

>  <m_Rgroups>  (919) 
[H],[OH],[H],[H]

>  <m_chem_types>  (919) 
1:backbone_n,2:backbone_c,3:backbone_n_mod,4:terminal_alkene

>  <m_activation_policy>  (919) 
canonical-sites-v1

$$$$

     RDKit          2D

 15 14  0  0  0  0  0  0  0  0999 V2000
   -1.9831    2.5037    0.0000 R   0  0  0  0  0  1  0  0  0  0  0  0
   -2.8283    1.2645    0.0000 N   0  0  0  0  0  0  0  0  0  0  0  0
   -4.3241    1.3769    0.0000 R   0  0  0  0  0  1  0  0  0  0  0  0
   -2.1777   -0.0871    0.0000 C   0  0  0  0  0  0  0  0  0  0  0  0
   -3.5293   -0.7377    0.0000 C   0  0  0  0  0  0  0  0  0  0  0  0
   -0.8261    0.5635    0.0000 C   0  0  0  0  0  0  0  0  0  0  0  0
    0.4131   -0.2817    0.0000 C   0  0  0  0  0  0  0  0  0  0  0  0
    1.7646    0.3688    0.0000 C   0  0  0  0  0  0  0  0  0  0  0  0
    3.0038   -0.4764    0.0000 C   0  0  0  0  0  0  0  0  0  0  0  0
    4.3554    0.1742    0.0000 C   0  0  0  0  0  0  0  0  0  0  0  0
    5.5946   -0.6710    0.0000 R   0  0  0  0  0  1  0  0  0  0  0  0
    4.4678    1.6700    0.0000 C   0  0  0  0  0  0  0  0  0  0  0  0
   -1.5271   -1.4387    0.0000 C   0  0  0  0  0  0  0  0  0  0  0  0
   -0.0314   -1.5510    0.0000 R   0  0  0  0  0  1  0  0  0  0  0  0
   -2.3724   -2.6779    0.0000 O   0  0  0  0  0  0  0  0  0  0  0  0
  1  2  1  0
  2  3  1  0
  2  4  1  0
  4  5  1  1
  4  6  1  0
  6  7  1  0
  7  8  1  0
  8  9  1  0
  9 10  1  0
 10 11  1  0
 10 12  2  0
  4 13  1  0
 13 14  1  0
 13 15  2  0
M  ISO  4   1   1   3   3  11   4  14   2
M  END
>  <symbol>  (920) 
R6

>  <m_abbr>  (920) 
R6

>  <m_name>  (920) 
(R)-alpha-methyl-6-heptenylglycine (RCM staple)

>  <m_type>  (920) 
aa

>  <m_subtype>  (920) 
modified

>  <m_Rgroups>  (920) 
[H],[OH],[H],[H]

>  <m_chem_types>  (920) 
1:backbone_n,2:backbone_c,3:backbone_n_mod,4:terminal_alkene

>  <m_activation_policy>  (920) 
canonical-sites-v1

$$$$

     RDKit          2D

 10  9  0  0  0  0  0  0  0  0999 V2000
    4.7658    0.8152    0.0000 R   0  0  0  0  0  1  0  0  0  0  0  0
    3.5146   -0.0121    0.0000 C   0  0  0  0  0  0  0  0  0  0  0  0
    3.6055   -1.5094    0.0000 O   0  0  0  0  0  0  0  0  0  0  0  0
    2.1725    0.6578    0.0000 C   0  0  0  0  0  0  0  0  0  0  0  0
    0.9213   -0.1695    0.0000 C   0  0  0  0  0  0  0  0  0  0  0  0
   -0.4208    0.5004    0.0000 C   0  0  0  0  0  0  0  0  0  0  0  0
   -1.6720   -0.3269    0.0000 C   0  0  0  0  0  0  0  0  0  0  0  0
   -3.0141    0.3430    0.0000 C   0  0  0  0  0  0  0  0  0  0  0  0
   -4.2653   -0.4843    0.0000 C   0  0  0  0  0  0  0  0  0  0  0  0
   -5.6074    0.1857    0.0000 C   0  0  0  0  0  0  0  0  0  0  0  0
  1  2  1  0
  2  3  2  0
  2  4  1  0
  4  5  1  0
  5  6  1  0
  6  7  1  0
  7  8  1  0
  8  9  1  0
  9 10  1  0
M  ISO  1   1   2
M  END
>  <symbol>  (921) 
OctCap

>  <m_abbr>  (921) 
OctCap

>  <m_name>  (921) 
Octanoyl cap (C8)

>  <m_type>  (921) 
cap

>  <m_subtype>  (921) 
cap

>  <m_Rgroups>  (921) 
None,[OH]

>  <m_chem_types>  (921) 
2:backbone_c

>  <m_activation_policy>  (921) 
canonical-sites-v1

$$$$

     RDKit          2D

 12 11  0  0  0  0  0  0  0  0999 V2000
    6.0342    0.7670    0.0000 R   0  0  0  0  0  1  0  0  0  0  0  0
    4.7695   -0.0396    0.0000 C   0  0  0  0  0  0  0  0  0  0  0  0
    4.8357   -1.5381    0.0000 O   0  0  0  0  0  0  0  0  0  0  0  0
    3.4387    0.6523    0.0000 C   0  0  0  0  0  0  0  0  0  0  0  0
    2.1740   -0.1542    0.0000 C   0  0  0  0  0  0  0  0  0  0  0  0
    0.8431    0.5377    0.0000 C   0  0  0  0  0  0  0  0  0  0  0  0
   -0.4216   -0.2689    0.0000 C   0  0  0  0  0  0  0  0  0  0  0  0
   -1.7524    0.4231    0.0000 C   0  0  0  0  0  0  0  0  0  0  0  0
   -3.0171   -0.3835    0.0000 C   0  0  0  0  0  0  0  0  0  0  0  0
   -4.3480    0.3085    0.0000 C   0  0  0  0  0  0  0  0  0  0  0  0
   -5.6127   -0.4981    0.0000 C   0  0  0  0  0  0  0  0  0  0  0  0
   -6.9435    0.1938    0.0000 C   0  0  0  0  0  0  0  0  0  0  0  0
  1  2  1  0
  2  3  2  0
  2  4  1  0
  4  5  1  0
  5  6  1  0
  6  7  1  0
  7  8  1  0
  8  9  1  0
  9 10  1  0
 10 11  1  0
 11 12  1  0
M  ISO  1   1   2
M  END
>  <symbol>  (922) 
DecCap

>  <m_abbr>  (922) 
DecCap

>  <m_name>  (922) 
Decanoyl cap (C10)

>  <m_type>  (922) 
cap

>  <m_subtype>  (922) 
cap

>  <m_Rgroups>  (922) 
None,[OH]

>  <m_chem_types>  (922) 
2:backbone_c

>  <m_activation_policy>  (922) 
canonical-sites-v1

$$$$

     RDKit          2D

  7  6  0  0  0  0  0  0  0  0999 V2000
   -2.5981   -0.8571    0.0000 R   0  0  0  0  0  1  0  0  0  0  0  0
   -1.2990   -0.1071    0.0000 C   0  0  0  0  0  0  0  0  0  0  0  0
   -1.2990    1.3929    0.0000 O   0  0  0  0  0  0  0  0  0  0  0  0
    0.0000   -0.8571    0.0000 C   0  0  0  0  0  0  0  0  0  0  0  0
    1.2990   -0.1071    0.0000 C   0  0  0  0  0  0  0  0  0  0  0  0
    2.5981   -0.8571    0.0000 C   0  0  0  0  0  0  0  0  0  0  0  0
    1.2990    1.3929    0.0000 C   0  0  0  0  0  0  0  0  0  0  0  0
  1  2  1  0
  2  3  2  0
  2  4  1  0
  4  5  1  0
  5  6  1  0
  5  7  1  0
M  ISO  1   1   2
M  END
>  <symbol>  (923) 
IsoButCap

>  <m_abbr>  (923) 
IsoButCap

>  <m_name>  (923) 
3-methylbutanoyl (isovaleryl) cap

>  <m_type>  (923) 
cap

>  <m_subtype>  (923) 
cap

>  <m_Rgroups>  (923) 
None,[OH]

>  <m_chem_types>  (923) 
2:backbone_c

>  <m_activation_policy>  (923) 
canonical-sites-v1

$$$$

     RDKit          2D

  7  6  0  0  0  0  0  0  0  0999 V2000
    1.6071    1.2990    0.0000 R   0  0  0  0  0  1  0  0  0  0  0  0
    0.8571    0.0000    0.0000 C   0  0  0  0  0  0  0  0  0  0  0  0
    1.6071   -1.2990    0.0000 O   0  0  0  0  0  0  0  0  0  0  0  0
   -0.6429   -0.0000    0.0000 C   0  0  0  0  0  0  0  0  0  0  0  0
   -0.6429   -1.5000    0.0000 C   0  0  0  0  0  0  0  0  0  0  0  0
   -0.6429    1.5000    0.0000 C   0  0  0  0  0  0  0  0  0  0  0  0
   -2.1429   -0.0000    0.0000 C   0  0  0  0  0  0  0  0  0  0  0  0
  1  2  1  0
  2  3  2  0
  2  4  1  0
  4  5  1  0
  4  6  1  0
  4  7  1  0
M  ISO  1   1   2
M  END
>  <symbol>  (924) 
PivCap

>  <m_abbr>  (924) 
PivCap

>  <m_name>  (924) 
Pivaloyl (trimethylacetyl) cap

>  <m_type>  (924) 
cap

>  <m_subtype>  (924) 
cap

>  <m_Rgroups>  (924) 
None,[OH]

>  <m_chem_types>  (924) 
2:backbone_c

>  <m_activation_policy>  (924) 
canonical-sites-v1

$$$$

     RDKit          2D

  9  9  0  0  0  0  0  0  0  0999 V2000
    2.5833   -1.2990    0.0000 R   0  0  0  0  0  1  0  0  0  0  0  0
    1.8333    0.0000    0.0000 C   0  0  0  0  0  0  0  0  0  0  0  0
    2.5833    1.2990    0.0000 O   0  0  0  0  0  0  0  0  0  0  0  0
    0.3333   -0.0000    0.0000 C   0  0  0  0  0  0  0  0  0  0  0  0
   -0.4167   -1.2990    0.0000 C   0  0  0  0  0  0  0  0  0  0  0  0
   -1.9167   -1.2990    0.0000 C   0  0  0  0  0  0  0  0  0  0  0  0
   -2.6667    0.0000    0.0000 C   0  0  0  0  0  0  0  0  0  0  0  0
   -1.9167    1.2990    0.0000 C   0  0  0  0  0  0  0  0  0  0  0  0
   -0.4167    1.2990    0.0000 C   0  0  0  0  0  0  0  0  0  0  0  0
  1  2  1  0
  2  3  2  0
  2  4  1  0
  4  5  1  0
  5  6  1  0
  6  7  1  0
  7  8  1  0
  8  9  1  0
  9  4  1  0
M  ISO  1   1   2
M  END
>  <symbol>  (925) 
CyclohexCap

>  <m_abbr>  (925) 
CyclohexCap

>  <m_name>  (925) 
Cyclohexanecarbonyl cap

>  <m_type>  (925) 
cap

>  <m_subtype>  (925) 
cap

>  <m_Rgroups>  (925) 
None,[OH]

>  <m_chem_types>  (925) 
2:backbone_c

>  <m_activation_policy>  (925) 
canonical-sites-v1

$$$$

     RDKit          2D

 10 10  0  0  0  0  0  0  0  0999 V2000
   -3.7985   -0.4910    0.0000 R   0  0  0  0  0  1  0  0  0  0  0  0
   -2.3812   -0.0000    0.0000 C   0  0  0  0  0  0  0  0  0  0  0  0
   -2.0977    1.4730    0.0000 O   0  0  0  0  0  0  0  0  0  0  0  0
   -1.2473   -0.9820    0.0000 C   0  0  0  0  0  0  0  0  0  0  0  0
    0.1701   -0.4910    0.0000 C   0  0  0  0  0  0  0  0  0  0  0  0
    0.4536    0.9820    0.0000 C   0  0  0  0  0  0  0  0  0  0  0  0
    1.8709    1.4730    0.0000 C   0  0  0  0  0  0  0  0  0  0  0  0
    3.0048    0.4910    0.0000 C   0  0  0  0  0  0  0  0  0  0  0  0
    2.7213   -0.9820    0.0000 C   0  0  0  0  0  0  0  0  0  0  0  0
    1.3040   -1.4730    0.0000 C   0  0  0  0  0  0  0  0  0  0  0  0
  1  2  1  0
  2  3  2  0
  2  4  1  0
  4  5  1  0
  5  6  2  0
  6  7  1  0
  7  8  2  0
  8  9  1  0
  9 10  2  0
 10  5  1  0
M  ISO  1   1   2
M  END
>  <symbol>  (926) 
BnCap

>  <m_abbr>  (926) 
BnCap

>  <m_name>  (926) 
Phenylacetyl (benzyl carbonyl) cap

>  <m_type>  (926) 
cap

>  <m_subtype>  (926) 
cap

>  <m_Rgroups>  (926) 
None,[OH]

>  <m_chem_types>  (926) 
2:backbone_c

>  <m_activation_policy>  (926) 
canonical-sites-v1

$$$$

     RDKit          2D

 13 14  0  0  0  0  0  0  0  0999 V2000
   -3.4710    1.7577    0.0000 R   0  0  0  0  0  1  0  0  0  0  0  0
   -3.0828    0.3088    0.0000 C   0  0  0  0  0  0  0  0  0  0  0  0
   -4.1435   -0.7519    0.0000 O   0  0  0  0  0  0  0  0  0  0  0  0
   -1.6339   -0.0794    0.0000 C   0  0  0  0  0  0  0  0  0  0  0  0
   -1.2457   -1.5283    0.0000 C   0  0  0  0  0  0  0  0  0  0  0  0
    0.2032   -1.9166    0.0000 C   0  0  0  0  0  0  0  0  0  0  0  0
    1.2638   -0.8559    0.0000 C   0  0  0  0  0  0  0  0  0  0  0  0
    2.7127   -1.2441    0.0000 C   0  0  0  0  0  0  0  0  0  0  0  0
    3.7734   -0.1835    0.0000 C   0  0  0  0  0  0  0  0  0  0  0  0
    3.3852    1.2654    0.0000 C   0  0  0  0  0  0  0  0  0  0  0  0
    1.9363    1.6536    0.0000 C   0  0  0  0  0  0  0  0  0  0  0  0
    0.8756    0.5930    0.0000 C   0  0  0  0  0  0  0  0  0  0  0  0
   -0.5733    0.9812    0.0000 C   0  0  0  0  0  0  0  0  0  0  0  0
  1  2  1  0
  2  3  2  0
  2  4  1  0
  4  5  1  0
  5  6  2  0
  6  7  1  0
  7  8  2  0
  8  9  1  0
  9 10  2  0
 10 11  1  0
 11 12  2  0
 12 13  1  0
 13  4  2  0
 12  7  1  0
M  ISO  1   1   2
M  END
>  <symbol>  (927) 
NaphtCap

>  <m_abbr>  (927) 
NaphtCap

>  <m_name>  (927) 
2-Naphthoyl cap

>  <m_type>  (927) 
cap

>  <m_subtype>  (927) 
cap

>  <m_Rgroups>  (927) 
None,[OH]

>  <m_chem_types>  (927) 
2:backbone_c

>  <m_activation_policy>  (927) 
canonical-sites-v1

$$$$

     RDKit          2D

 16 15  0  0  0  0  0  0  0  0999 V2000
    8.5907    0.6964    0.0000 R   0  0  0  0  0  1  0  0  0  0  0  0
    7.3120   -0.0877    0.0000 C   0  0  0  0  0  0  0  0  0  0  0  0
    7.3517   -1.5872    0.0000 O   0  0  0  0  0  0  0  0  0  0  0  0
    5.9935    0.6276    0.0000 C   0  0  0  0  0  0  0  0  0  0  0  0
    4.7148   -0.1565    0.0000 C   0  0  0  0  0  0  0  0  0  0  0  0
    3.3964    0.5588    0.0000 C   0  0  0  0  0  0  0  0  0  0  0  0
    2.1176   -0.2253    0.0000 C   0  0  0  0  0  0  0  0  0  0  0  0
    0.7992    0.4901    0.0000 C   0  0  0  0  0  0  0  0  0  0  0  0
   -0.4795   -0.2940    0.0000 C   0  0  0  0  0  0  0  0  0  0  0  0
   -1.7980    0.4213    0.0000 C   0  0  0  0  0  0  0  0  0  0  0  0
   -3.0767   -0.3628    0.0000 C   0  0  0  0  0  0  0  0  0  0  0  0
   -4.3951    0.3525    0.0000 C   0  0  0  0  0  0  0  0  0  0  0  0
   -5.6739   -0.4316    0.0000 C   0  0  0  0  0  0  0  0  0  0  0  0
   -6.9923    0.2838    0.0000 C   0  0  0  0  0  0  0  0  0  0  0  0
   -8.2710   -0.5004    0.0000 C   0  0  0  0  0  0  0  0  0  0  0  0
   -9.5895    0.2150    0.0000 C   0  0  0  0  0  0  0  0  0  0  0  0
  1  2  1  0
  2  3  2  0
  2  4  1  0
  4  5  1  0
  5  6  1  0
  6  7  1  0
  7  8  1  0
  8  9  1  0
  9 10  1  0
 10 11  1  0
 11 12  1  0
 12 13  1  0
 13 14  1  0
 14 15  1  0
 15 16  1  0
M  ISO  1   1   2
M  END
>  <symbol>  (928) 
MyrCap

>  <m_abbr>  (928) 
MyrCap

>  <m_name>  (928) 
Myristoyl cap (C14)

>  <m_type>  (928) 
cap

>  <m_subtype>  (928) 
cap

>  <m_Rgroups>  (928) 
None,[OH]

>  <m_chem_types>  (928) 
2:backbone_c

>  <m_activation_policy>  (928) 
canonical-sites-v1

$$$$

     RDKit          2D

 18 17  0  0  0  0  0  0  0  0999 V2000
    9.8751    0.6698    0.0000 R   0  0  0  0  0  1  0  0  0  0  0  0
    8.5924   -0.1078    0.0000 C   0  0  0  0  0  0  0  0  0  0  0  0
    8.6245   -1.6075    0.0000 O   0  0  0  0  0  0  0  0  0  0  0  0
    7.2776    0.6142    0.0000 C   0  0  0  0  0  0  0  0  0  0  0  0
    5.9949   -0.1634    0.0000 C   0  0  0  0  0  0  0  0  0  0  0  0
    4.6801    0.5586    0.0000 C   0  0  0  0  0  0  0  0  0  0  0  0
    3.3974   -0.2190    0.0000 C   0  0  0  0  0  0  0  0  0  0  0  0
    2.0826    0.5030    0.0000 C   0  0  0  0  0  0  0  0  0  0  0  0
    0.7999   -0.2746    0.0000 C   0  0  0  0  0  0  0  0  0  0  0  0
   -0.5149    0.4474    0.0000 C   0  0  0  0  0  0  0  0  0  0  0  0
   -1.7976   -0.3302    0.0000 C   0  0  0  0  0  0  0  0  0  0  0  0
   -3.1124    0.3918    0.0000 C   0  0  0  0  0  0  0  0  0  0  0  0
   -4.3950   -0.3858    0.0000 C   0  0  0  0  0  0  0  0  0  0  0  0
   -5.7098    0.3362    0.0000 C   0  0  0  0  0  0  0  0  0  0  0  0
   -6.9925   -0.4414    0.0000 C   0  0  0  0  0  0  0  0  0  0  0  0
   -8.3073    0.2806    0.0000 C   0  0  0  0  0  0  0  0  0  0  0  0
   -9.5900   -0.4970    0.0000 C   0  0  0  0  0  0  0  0  0  0  0  0
  -10.9048    0.2250    0.0000 C   0  0  0  0  0  0  0  0  0  0  0  0
  1  2  1  0
  2  3  2  0
  2  4  1  0
  4  5  1  0
  5  6  1  0
  6  7  1  0
  7  8  1  0
  8  9  1  0
  9 10  1  0
 10 11  1  0
 11 12  1  0
 12 13  1  0
 13 14  1  0
 14 15  1  0
 15 16  1  0
 16 17  1  0
 17 18  1  0
M  ISO  1   1   2
M  END
>  <symbol>  (929) 
PalCap

>  <m_abbr>  (929) 
PalCap

>  <m_name>  (929) 
Palmitoyl cap (C16)

>  <m_type>  (929) 
cap

>  <m_subtype>  (929) 
cap

>  <m_Rgroups>  (929) 
None,[OH]

>  <m_chem_types>  (929) 
2:backbone_c

>  <m_activation_policy>  (929) 
canonical-sites-v1

$$$$

     RDKit          2D

  9  9  0  0  0  0  0  0  0  0999 V2000
    2.5833   -1.2990    0.0000 R   0  0  0  0  0  1  0  0  0  0  0  0
    1.8333    0.0000    0.0000 C   0  0  0  0  0  0  0  0  0  0  0  0
    2.5833    1.2990    0.0000 O   0  0  0  0  0  0  0  0  0  0  0  0
    0.3333   -0.0000    0.0000 C   0  0  0  0  0  0  0  0  0  0  0  0
   -0.4167   -1.2990    0.0000 C   0  0  0  0  0  0  0  0  0  0  0  0
   -1.9167   -1.2990    0.0000 C   0  0  0  0  0  0  0  0  0  0  0  0
   -2.6667    0.0000    0.0000 C   0  0  0  0  0  0  0  0  0  0  0  0
   -1.9167    1.2990    0.0000 C   0  0  0  0  0  0  0  0  0  0  0  0
   -0.4167    1.2990    0.0000 C   0  0  0  0  0  0  0  0  0  0  0  0
  1  2  1  0
  2  3  2  0
  2  4  1  0
  4  5  2  0
  5  6  1  0
  6  7  2  0
  7  8  1  0
  8  9  2  0
  9  4  1  0
M  ISO  1   1   2
M  END
>  <symbol>  (930) 
BzCap

>  <m_abbr>  (930) 
BzCap

>  <m_name>  (930) 
Benzoyl cap

>  <m_type>  (930) 
cap

>  <m_subtype>  (930) 
cap

>  <m_Rgroups>  (930) 
None,[OH]

>  <m_chem_types>  (930) 
2:backbone_c

>  <m_activation_policy>  (930) 
canonical-sites-v1

$$$$

     RDKit          2D

 15 15  0  0  0  0  0  0  0  0999 V2000
   -2.9107    2.0342    0.0000 R   0  0  0  0  0  1  0  0  0  0  0  0
   -1.6606    1.2052    0.0000 N   0  0  0  0  0  0  0  0  0  0  0  0
   -0.3176    1.8733    0.0000 C   0  0  0  0  0  0  0  0  0  0  0  0
   -1.7535   -0.2919    0.0000 C   0  0  0  0  0  0  0  0  0  0  0  0
   -0.5034   -1.1210    0.0000 C   0  0  0  0  0  0  0  0  0  0  0  0
    0.8396   -0.4529    0.0000 C   0  0  0  0  0  0  0  0  0  0  0  0
    0.9325    1.0442    0.0000 C   0  0  0  0  0  0  0  0  0  0  0  0
    2.2755    1.7123    0.0000 C   0  0  0  0  0  0  0  0  0  0  0  0
    3.5256    0.8833    0.0000 C   0  0  0  0  0  0  0  0  0  0  0  0
    3.4327   -0.6138    0.0000 C   0  0  0  0  0  0  0  0  0  0  0  0
    4.6828   -1.4428    0.0000 Cl  0  0  0  0  0  0  0  0  0  0  0  0
    2.0897   -1.2819    0.0000 C   0  0  0  0  0  0  0  0  0  0  0  0
   -3.0965   -0.9600    0.0000 C   0  0  0  0  0  0  0  0  0  0  0  0
   -4.3466   -0.1310    0.0000 R   0  0  0  0  0  1  0  0  0  0  0  0
   -3.1894   -2.4572    0.0000 O   0  0  0  0  0  0  0  0  0  0  0  0
  1  2  1  0
  2  3  1  0
  2  4  1  0
  4  5  1  1
  5  6  1  0
  6  7  2  0
  7  8  1  0
  8  9  2  0
  9 10  1  0
 10 11  1  0
 10 12  2  0
  4 13  1  0
 13 14  1  0
 13 15  2  0
 12  6  1  0
M  ISO  2   1   1  14   2
M  END
>  <symbol>  (931) 
mePhe_3Cl

>  <m_abbr>  (931) 
mePhe_3Cl

>  <m_name>  (931) 
NMe-L-3-chlorophenylalanine

>  <m_type>  (931) 
aa

>  <m_subtype>  (931) 
modified

>  <m_Rgroups>  (931) 
[H],[OH]

>  <m_chem_types>  (931) 
1:backbone_n,2:backbone_c

>  <m_activation_policy>  (931) 
canonical-sites-v1

$$$$

     RDKit          2D

 15 15  0  0  0  0  0  0  0  0999 V2000
   -2.9107    2.0342    0.0000 R   0  0  0  0  0  1  0  0  0  0  0  0
   -1.6606    1.2052    0.0000 N   0  0  0  0  0  0  0  0  0  0  0  0
   -0.3176    1.8733    0.0000 C   0  0  0  0  0  0  0  0  0  0  0  0
   -1.7535   -0.2919    0.0000 C   0  0  0  0  0  0  0  0  0  0  0  0
   -0.5034   -1.1210    0.0000 C   0  0  0  0  0  0  0  0  0  0  0  0
    0.8396   -0.4529    0.0000 C   0  0  0  0  0  0  0  0  0  0  0  0
    0.9325    1.0442    0.0000 C   0  0  0  0  0  0  0  0  0  0  0  0
    2.2755    1.7123    0.0000 C   0  0  0  0  0  0  0  0  0  0  0  0
    3.5256    0.8833    0.0000 C   0  0  0  0  0  0  0  0  0  0  0  0
    3.4327   -0.6138    0.0000 C   0  0  0  0  0  0  0  0  0  0  0  0
    4.6828   -1.4428    0.0000 Cl  0  0  0  0  0  0  0  0  0  0  0  0
    2.0897   -1.2819    0.0000 C   0  0  0  0  0  0  0  0  0  0  0  0
   -3.0965   -0.9600    0.0000 C   0  0  0  0  0  0  0  0  0  0  0  0
   -4.3466   -0.1310    0.0000 R   0  0  0  0  0  1  0  0  0  0  0  0
   -3.1894   -2.4572    0.0000 O   0  0  0  0  0  0  0  0  0  0  0  0
  1  2  1  0
  2  3  1  0
  2  4  1  0
  4  5  1  6
  5  6  1  0
  6  7  2  0
  7  8  1  0
  8  9  2  0
  9 10  1  0
 10 11  1  0
 10 12  2  0
  4 13  1  0
 13 14  1  0
 13 15  2  0
 12  6  1  0
M  ISO  2   1   1  14   2
M  END
>  <symbol>  (932) 
D_mePhe_3Cl

>  <m_abbr>  (932) 
D_mePhe_3Cl

>  <m_name>  (932) 
NMe-D-3-chlorophenylalanine

>  <m_type>  (932) 
aa

>  <m_subtype>  (932) 
modified

>  <m_Rgroups>  (932) 
[H],[OH]

>  <m_chem_types>  (932) 
1:backbone_n,2:backbone_c

>  <m_activation_policy>  (932) 
canonical-sites-v1

$$$$

     RDKit          2D

 15 15  0  0  0  0  0  0  0  0999 V2000
   -2.9107    2.0342    0.0000 R   0  0  0  0  0  1  0  0  0  0  0  0
   -1.6606    1.2052    0.0000 N   0  0  0  0  0  0  0  0  0  0  0  0
   -0.3176    1.8733    0.0000 C   0  0  0  0  0  0  0  0  0  0  0  0
   -1.7535   -0.2919    0.0000 C   0  0  0  0  0  0  0  0  0  0  0  0
   -0.5034   -1.1210    0.0000 C   0  0  0  0  0  0  0  0  0  0  0  0
    0.8396   -0.4529    0.0000 C   0  0  0  0  0  0  0  0  0  0  0  0
    0.9325    1.0442    0.0000 C   0  0  0  0  0  0  0  0  0  0  0  0
    2.2755    1.7123    0.0000 C   0  0  0  0  0  0  0  0  0  0  0  0
    3.5256    0.8833    0.0000 C   0  0  0  0  0  0  0  0  0  0  0  0
    3.4327   -0.6138    0.0000 C   0  0  0  0  0  0  0  0  0  0  0  0
    4.6828   -1.4428    0.0000 Br  0  0  0  0  0  0  0  0  0  0  0  0
    2.0897   -1.2819    0.0000 C   0  0  0  0  0  0  0  0  0  0  0  0
   -3.0965   -0.9600    0.0000 C   0  0  0  0  0  0  0  0  0  0  0  0
   -4.3466   -0.1310    0.0000 R   0  0  0  0  0  1  0  0  0  0  0  0
   -3.1894   -2.4572    0.0000 O   0  0  0  0  0  0  0  0  0  0  0  0
  1  2  1  0
  2  3  1  0
  2  4  1  0
  4  5  1  1
  5  6  1  0
  6  7  2  0
  7  8  1  0
  8  9  2  0
  9 10  1  0
 10 11  1  0
 10 12  2  0
  4 13  1  0
 13 14  1  0
 13 15  2  0
 12  6  1  0
M  ISO  2   1   1  14   2
M  END
>  <symbol>  (933) 
mePhe_3Br

>  <m_abbr>  (933) 
mePhe_3Br

>  <m_name>  (933) 
NMe-L-3-bromophenylalanine

>  <m_type>  (933) 
aa

>  <m_subtype>  (933) 
modified

>  <m_Rgroups>  (933) 
[H],[OH]

>  <m_chem_types>  (933) 
1:backbone_n,2:backbone_c

>  <m_activation_policy>  (933) 
canonical-sites-v1

$$$$

     RDKit          2D

 15 15  0  0  0  0  0  0  0  0999 V2000
   -2.9107    2.0342    0.0000 R   0  0  0  0  0  1  0  0  0  0  0  0
   -1.6606    1.2052    0.0000 N   0  0  0  0  0  0  0  0  0  0  0  0
   -0.3176    1.8733    0.0000 C   0  0  0  0  0  0  0  0  0  0  0  0
   -1.7535   -0.2919    0.0000 C   0  0  0  0  0  0  0  0  0  0  0  0
   -0.5034   -1.1210    0.0000 C   0  0  0  0  0  0  0  0  0  0  0  0
    0.8396   -0.4529    0.0000 C   0  0  0  0  0  0  0  0  0  0  0  0
    0.9325    1.0442    0.0000 C   0  0  0  0  0  0  0  0  0  0  0  0
    2.2755    1.7123    0.0000 C   0  0  0  0  0  0  0  0  0  0  0  0
    3.5256    0.8833    0.0000 C   0  0  0  0  0  0  0  0  0  0  0  0
    3.4327   -0.6138    0.0000 C   0  0  0  0  0  0  0  0  0  0  0  0
    4.6828   -1.4428    0.0000 Br  0  0  0  0  0  0  0  0  0  0  0  0
    2.0897   -1.2819    0.0000 C   0  0  0  0  0  0  0  0  0  0  0  0
   -3.0965   -0.9600    0.0000 C   0  0  0  0  0  0  0  0  0  0  0  0
   -4.3466   -0.1310    0.0000 R   0  0  0  0  0  1  0  0  0  0  0  0
   -3.1894   -2.4572    0.0000 O   0  0  0  0  0  0  0  0  0  0  0  0
  1  2  1  0
  2  3  1  0
  2  4  1  0
  4  5  1  6
  5  6  1  0
  6  7  2  0
  7  8  1  0
  8  9  2  0
  9 10  1  0
 10 11  1  0
 10 12  2  0
  4 13  1  0
 13 14  1  0
 13 15  2  0
 12  6  1  0
M  ISO  2   1   1  14   2
M  END
>  <symbol>  (934) 
D_mePhe_3Br

>  <m_abbr>  (934) 
D_mePhe_3Br

>  <m_name>  (934) 
NMe-D-3-bromophenylalanine

>  <m_type>  (934) 
aa

>  <m_subtype>  (934) 
modified

>  <m_Rgroups>  (934) 
[H],[OH]

>  <m_chem_types>  (934) 
1:backbone_n,2:backbone_c

>  <m_activation_policy>  (934) 
canonical-sites-v1

$$$$

     RDKit          2D

 18 18  0  0  0  0  0  0  0  0999 V2000
   -3.4873    2.2849    0.0000 R   0  0  0  0  0  1  0  0  0  0  0  0
   -2.2618    1.4199    0.0000 N   0  0  0  0  0  0  0  0  0  0  0  0
   -0.9000    2.0487    0.0000 C   0  0  0  0  0  0  0  0  0  0  0  0
   -2.3982   -0.0739    0.0000 C   0  0  0  0  0  0  0  0  0  0  0  0
   -1.1728   -0.9389    0.0000 C   0  0  0  0  0  0  0  0  0  0  0  0
    0.1891   -0.3101    0.0000 C   0  0  0  0  0  0  0  0  0  0  0  0
    0.3255    1.1836    0.0000 C   0  0  0  0  0  0  0  0  0  0  0  0
    1.6874    1.8124    0.0000 C   0  0  0  0  0  0  0  0  0  0  0  0
    2.9128    0.9474    0.0000 C   0  0  0  0  0  0  0  0  0  0  0  0
    4.2747    1.5761    0.0000 O   0  0  0  0  0  0  0  0  0  0  0  0
    5.5001    0.7111    0.0000 C   0  0  0  0  0  0  0  0  0  0  0  0
    2.7764   -0.5464    0.0000 C   0  0  0  0  0  0  0  0  0  0  0  0
    1.4145   -1.1752    0.0000 C   0  0  0  0  0  0  0  0  0  0  0  0
    1.2781   -2.6690    0.0000 O   0  0  0  0  0  0  0  0  0  0  0  0
    2.5036   -3.5340    0.0000 C   0  0  0  0  0  0  0  0  0  0  0  0
   -3.7601   -0.7026    0.0000 C   0  0  0  0  0  0  0  0  0  0  0  0
   -4.9855    0.1624    0.0000 R   0  0  0  0  0  1  0  0  0  0  0  0
   -3.8965   -2.1964    0.0000 O   0  0  0  0  0  0  0  0  0  0  0  0
  1  2  1  0
  2  3  1  0
  2  4  1  0
  4  5  1  1
  5  6  1  0
  6  7  1  0
  7  8  2  0
  8  9  1  0
  9 10  1  0
 10 11  1  0
  9 12  2  0
 12 13  1  0
 13 14  1  0
 14 15  1  0
  4 16  1  0
 16 17  1  0
 16 18  2  0
 13  6  2  0
M  ISO  2   1   1  17   2
M  END
>  <symbol>  (935) 
mePhe_34diOMe

>  <m_abbr>  (935) 
mePhe_34diOMe

>  <m_name>  (935) 
NMe-L-3,4-dimethoxyphenylalanine

>  <m_type>  (935) 
aa

>  <m_subtype>  (935) 
modified

>  <m_Rgroups>  (935) 
[H],[OH]

>  <m_chem_types>  (935) 
1:backbone_n,2:backbone_c

>  <m_activation_policy>  (935) 
canonical-sites-v1

$$$$

     RDKit          2D

 18 18  0  0  0  0  0  0  0  0999 V2000
   -3.4873    2.2849    0.0000 R   0  0  0  0  0  1  0  0  0  0  0  0
   -2.2618    1.4199    0.0000 N   0  0  0  0  0  0  0  0  0  0  0  0
   -0.9000    2.0487    0.0000 C   0  0  0  0  0  0  0  0  0  0  0  0
   -2.3982   -0.0739    0.0000 C   0  0  0  0  0  0  0  0  0  0  0  0
   -1.1728   -0.9389    0.0000 C   0  0  0  0  0  0  0  0  0  0  0  0
    0.1891   -0.3101    0.0000 C   0  0  0  0  0  0  0  0  0  0  0  0
    0.3255    1.1836    0.0000 C   0  0  0  0  0  0  0  0  0  0  0  0
    1.6874    1.8124    0.0000 C   0  0  0  0  0  0  0  0  0  0  0  0
    2.9128    0.9474    0.0000 C   0  0  0  0  0  0  0  0  0  0  0  0
    4.2747    1.5761    0.0000 O   0  0  0  0  0  0  0  0  0  0  0  0
    5.5001    0.7111    0.0000 C   0  0  0  0  0  0  0  0  0  0  0  0
    2.7764   -0.5464    0.0000 C   0  0  0  0  0  0  0  0  0  0  0  0
    1.4145   -1.1752    0.0000 C   0  0  0  0  0  0  0  0  0  0  0  0
    1.2781   -2.6690    0.0000 O   0  0  0  0  0  0  0  0  0  0  0  0
    2.5036   -3.5340    0.0000 C   0  0  0  0  0  0  0  0  0  0  0  0
   -3.7601   -0.7026    0.0000 C   0  0  0  0  0  0  0  0  0  0  0  0
   -4.9855    0.1624    0.0000 R   0  0  0  0  0  1  0  0  0  0  0  0
   -3.8965   -2.1964    0.0000 O   0  0  0  0  0  0  0  0  0  0  0  0
  1  2  1  0
  2  3  1  0
  2  4  1  0
  4  5  1  6
  5  6  1  0
  6  7  1  0
  7  8  2  0
  8  9  1  0
  9 10  1  0
 10 11  1  0
  9 12  2  0
 12 13  1  0
 13 14  1  0
 14 15  1  0
  4 16  1  0
 16 17  1  0
 16 18  2  0
 13  6  2  0
M  ISO  2   1   1  17   2
M  END
>  <symbol>  (936) 
D_mePhe_34diOMe

>  <m_abbr>  (936) 
D_mePhe_34diOMe

>  <m_name>  (936) 
NMe-D-3,4-dimethoxyphenylalanine

>  <m_type>  (936) 
aa

>  <m_subtype>  (936) 
modified

>  <m_Rgroups>  (936) 
[H],[OH]

>  <m_chem_types>  (936) 
1:backbone_n,2:backbone_c

>  <m_activation_policy>  (936) 
canonical-sites-v1

$$$$

     RDKit          2D

 17 17  0  0  0  0  0  0  0  0999 V2000
   -3.1584    2.3389    0.0000 R   0  0  0  0  0  1  0  0  0  0  0  0
   -2.1065    1.2696    0.0000 N   0  0  0  0  0  0  0  0  0  0  0  0
   -0.6545    1.6460    0.0000 C   0  0  0  0  0  0  0  0  0  0  0  0
   -2.5066   -0.1760    0.0000 C   0  0  0  0  0  0  0  0  0  0  0  0
   -1.4547   -1.2454    0.0000 C   0  0  0  0  0  0  0  0  0  0  0  0
   -0.0026   -0.8690    0.0000 C   0  0  0  0  0  0  0  0  0  0  0  0
    0.3974    0.5766    0.0000 C   0  0  0  0  0  0  0  0  0  0  0  0
    1.8495    0.9530    0.0000 C   0  0  0  0  0  0  0  0  0  0  0  0
    2.9014   -0.1163    0.0000 C   0  0  0  0  0  0  0  0  0  0  0  0
    4.3534    0.2600    0.0000 C   0  0  0  0  0  0  0  0  0  0  0  0
    5.4054   -0.8093    0.0000 C   0  0  0  0  0  0  0  0  0  0  0  0
    4.7535    1.7057    0.0000 C   0  0  0  0  0  0  0  0  0  0  0  0
    2.5013   -1.5620    0.0000 C   0  0  0  0  0  0  0  0  0  0  0  0
    1.0493   -1.9383    0.0000 C   0  0  0  0  0  0  0  0  0  0  0  0
   -3.9586   -0.5524    0.0000 C   0  0  0  0  0  0  0  0  0  0  0  0
   -5.0106    0.5169    0.0000 R   0  0  0  0  0  1  0  0  0  0  0  0
   -4.3587   -1.9980    0.0000 O   0  0  0  0  0  0  0  0  0  0  0  0
  1  2  1  0
  2  3  1  0
  2  4  1  0
  4  5  1  1
  5  6  1  0
  6  7  1  0
  7  8  2  0
  8  9  1  0
  9 10  1  0
 10 11  1  0
 10 12  1  0
  9 13  2  0
 13 14  1  0
  4 15  1  0
 15 16  1  0
 15 17  2  0
 14  6  2  0
M  ISO  2   1   1  16   2
M  END
>  <symbol>  (937) 
mePhe_4iPr

>  <m_abbr>  (937) 
mePhe_4iPr

>  <m_name>  (937) 
NMe-L-4-isopropylphenylalanine

>  <m_type>  (937) 
aa

>  <m_subtype>  (937) 
modified

>  <m_Rgroups>  (937) 
[H],[OH]

>  <m_chem_types>  (937) 
1:backbone_n,2:backbone_c

>  <m_activation_policy>  (937) 
canonical-sites-v1

$$$$

     RDKit          2D

 17 17  0  0  0  0  0  0  0  0999 V2000
   -3.1584    2.3389    0.0000 R   0  0  0  0  0  1  0  0  0  0  0  0
   -2.1065    1.2696    0.0000 N   0  0  0  0  0  0  0  0  0  0  0  0
   -0.6545    1.6460    0.0000 C   0  0  0  0  0  0  0  0  0  0  0  0
   -2.5066   -0.1760    0.0000 C   0  0  0  0  0  0  0  0  0  0  0  0
   -1.4547   -1.2454    0.0000 C   0  0  0  0  0  0  0  0  0  0  0  0
   -0.0026   -0.8690    0.0000 C   0  0  0  0  0  0  0  0  0  0  0  0
    0.3974    0.5766    0.0000 C   0  0  0  0  0  0  0  0  0  0  0  0
    1.8495    0.9530    0.0000 C   0  0  0  0  0  0  0  0  0  0  0  0
    2.9014   -0.1163    0.0000 C   0  0  0  0  0  0  0  0  0  0  0  0
    4.3534    0.2600    0.0000 C   0  0  0  0  0  0  0  0  0  0  0  0
    5.4054   -0.8093    0.0000 C   0  0  0  0  0  0  0  0  0  0  0  0
    4.7535    1.7057    0.0000 C   0  0  0  0  0  0  0  0  0  0  0  0
    2.5013   -1.5620    0.0000 C   0  0  0  0  0  0  0  0  0  0  0  0
    1.0493   -1.9383    0.0000 C   0  0  0  0  0  0  0  0  0  0  0  0
   -3.9586   -0.5524    0.0000 C   0  0  0  0  0  0  0  0  0  0  0  0
   -5.0106    0.5169    0.0000 R   0  0  0  0  0  1  0  0  0  0  0  0
   -4.3587   -1.9980    0.0000 O   0  0  0  0  0  0  0  0  0  0  0  0
  1  2  1  0
  2  3  1  0
  2  4  1  0
  4  5  1  6
  5  6  1  0
  6  7  1  0
  7  8  2  0
  8  9  1  0
  9 10  1  0
 10 11  1  0
 10 12  1  0
  9 13  2  0
 13 14  1  0
  4 15  1  0
 15 16  1  0
 15 17  2  0
 14  6  2  0
M  ISO  2   1   1  16   2
M  END
>  <symbol>  (938) 
D_mePhe_4iPr

>  <m_abbr>  (938) 
D_mePhe_4iPr

>  <m_name>  (938) 
NMe-D-4-isopropylphenylalanine

>  <m_type>  (938) 
aa

>  <m_subtype>  (938) 
modified

>  <m_Rgroups>  (938) 
[H],[OH]

>  <m_chem_types>  (938) 
1:backbone_n,2:backbone_c

>  <m_activation_policy>  (938) 
canonical-sites-v1

$$$$

     RDKit          2D

 16 16  0  0  0  0  0  0  0  0999 V2000
   -3.2946    1.8204    0.0000 R   0  0  0  0  0  1  0  0  0  0  0  0
   -1.9240    1.2109    0.0000 N   0  0  0  0  0  0  0  0  0  0  0  0
   -0.7108    2.0932    0.0000 C   0  0  0  0  0  0  0  0  0  0  0  0
   -1.7665   -0.2808    0.0000 C   0  0  0  0  0  0  0  0  0  0  0  0
   -0.3959   -0.8902    0.0000 C   0  0  0  0  0  0  0  0  0  0  0  0
    0.8173   -0.0080    0.0000 C   0  0  0  0  0  0  0  0  0  0  0  0
    0.6598    1.4837    0.0000 C   0  0  0  0  0  0  0  0  0  0  0  0
    1.8729    2.3660    0.0000 C   0  0  0  0  0  0  0  0  0  0  0  0
    3.2435    1.7565    0.0000 C   0  0  0  0  0  0  0  0  0  0  0  0
    3.4010    0.2648    0.0000 C   0  0  0  0  0  0  0  0  0  0  0  0
    2.1879   -0.6174    0.0000 C   0  0  0  0  0  0  0  0  0  0  0  0
    2.3454   -2.1092    0.0000 O   0  0  0  0  0  0  0  0  0  0  0  0
    3.7160   -2.7186    0.0000 C   0  0  0  0  0  0  0  0  0  0  0  0
   -2.9796   -1.1630    0.0000 C   0  0  0  0  0  0  0  0  0  0  0  0
   -4.3502   -0.5536    0.0000 R   0  0  0  0  0  1  0  0  0  0  0  0
   -2.8221   -2.6547    0.0000 O   0  0  0  0  0  0  0  0  0  0  0  0
  1  2  1  0
  2  3  1  0
  2  4  1  0
  4  5  1  1
  5  6  1  0
  6  7  2  0
  7  8  1  0
  8  9  2  0
  9 10  1  0
 10 11  2  0
 11 12  1  0
 12 13  1  0
  4 14  1  0
 14 15  1  0
 14 16  2  0
 11  6  1  0
M  ISO  2   1   1  15   2
M  END
>  <symbol>  (939) 
mePhe_2OMe

>  <m_abbr>  (939) 
mePhe_2OMe

>  <m_name>  (939) 
NMe-L-2-methoxyphenylalanine

>  <m_type>  (939) 
aa

>  <m_subtype>  (939) 
modified

>  <m_Rgroups>  (939) 
[H],[OH]

>  <m_chem_types>  (939) 
1:backbone_n,2:backbone_c

>  <m_activation_policy>  (939) 
canonical-sites-v1

$$$$

     RDKit          2D

 16 16  0  0  0  0  0  0  0  0999 V2000
   -3.2946    1.8204    0.0000 R   0  0  0  0  0  1  0  0  0  0  0  0
   -1.9240    1.2109    0.0000 N   0  0  0  0  0  0  0  0  0  0  0  0
   -0.7108    2.0932    0.0000 C   0  0  0  0  0  0  0  0  0  0  0  0
   -1.7665   -0.2808    0.0000 C   0  0  0  0  0  0  0  0  0  0  0  0
   -0.3959   -0.8902    0.0000 C   0  0  0  0  0  0  0  0  0  0  0  0
    0.8173   -0.0080    0.0000 C   0  0  0  0  0  0  0  0  0  0  0  0
    0.6598    1.4837    0.0000 C   0  0  0  0  0  0  0  0  0  0  0  0
    1.8729    2.3660    0.0000 C   0  0  0  0  0  0  0  0  0  0  0  0
    3.2435    1.7565    0.0000 C   0  0  0  0  0  0  0  0  0  0  0  0
    3.4010    0.2648    0.0000 C   0  0  0  0  0  0  0  0  0  0  0  0
    2.1879   -0.6174    0.0000 C   0  0  0  0  0  0  0  0  0  0  0  0
    2.3454   -2.1092    0.0000 O   0  0  0  0  0  0  0  0  0  0  0  0
    3.7160   -2.7186    0.0000 C   0  0  0  0  0  0  0  0  0  0  0  0
   -2.9796   -1.1630    0.0000 C   0  0  0  0  0  0  0  0  0  0  0  0
   -4.3502   -0.5536    0.0000 R   0  0  0  0  0  1  0  0  0  0  0  0
   -2.8221   -2.6547    0.0000 O   0  0  0  0  0  0  0  0  0  0  0  0
  1  2  1  0
  2  3  1  0
  2  4  1  0
  4  5  1  6
  5  6  1  0
  6  7  2  0
  7  8  1  0
  8  9  2  0
  9 10  1  0
 10 11  2  0
 11 12  1  0
 12 13  1  0
  4 14  1  0
 14 15  1  0
 14 16  2  0
 11  6  1  0
M  ISO  2   1   1  15   2
M  END
>  <symbol>  (940) 
D_mePhe_2OMe

>  <m_abbr>  (940) 
D_mePhe_2OMe

>  <m_name>  (940) 
NMe-D-2-methoxyphenylalanine

>  <m_type>  (940) 
aa

>  <m_subtype>  (940) 
modified

>  <m_Rgroups>  (940) 
[H],[OH]

>  <m_chem_types>  (940) 
1:backbone_n,2:backbone_c

>  <m_activation_policy>  (940) 
canonical-sites-v1

$$$$

     RDKit          2D

 15 15  0  0  0  0  0  0  0  0999 V2000
   -2.6971    2.1670    0.0000 R   0  0  0  0  0  1  0  0  0  0  0  0
   -1.4605    1.3179    0.0000 N   0  0  0  0  0  0  0  0  0  0  0  0
   -0.1069    1.9643    0.0000 C   0  0  0  0  0  0  0  0  0  0  0  0
   -1.5775   -0.1775    0.0000 C   0  0  0  0  0  0  0  0  0  0  0  0
   -0.3409   -1.0265    0.0000 C   0  0  0  0  0  0  0  0  0  0  0  0
    1.0127   -0.3802    0.0000 C   0  0  0  0  0  0  0  0  0  0  0  0
    1.1297    1.1153    0.0000 C   0  0  0  0  0  0  0  0  0  0  0  0
    2.4833    1.7617    0.0000 C   0  0  0  0  0  0  0  0  0  0  0  0
    3.7198    0.9126    0.0000 C   0  0  0  0  0  0  0  0  0  0  0  0
    3.6028   -0.5828    0.0000 C   0  0  0  0  0  0  0  0  0  0  0  0
    2.2492   -1.2292    0.0000 C   0  0  0  0  0  0  0  0  0  0  0  0
    2.1322   -2.7246    0.0000 C   0  0  0  0  0  0  0  0  0  0  0  0
   -2.9311   -0.8239    0.0000 C   0  0  0  0  0  0  0  0  0  0  0  0
   -4.1677    0.0252    0.0000 R   0  0  0  0  0  1  0  0  0  0  0  0
   -3.0481   -2.3193    0.0000 O   0  0  0  0  0  0  0  0  0  0  0  0
  1  2  1  0
  2  3  1  0
  2  4  1  0
  4  5  1  1
  5  6  1  0
  6  7  2  0
  7  8  1  0
  8  9  2  0
  9 10  1  0
 10 11  2  0
 11 12  1  0
  4 13  1  0
 13 14  1  0
 13 15  2  0
 11  6  1  0
M  ISO  2   1   1  14   2
M  END
>  <symbol>  (941) 
mePhe_2Me

>  <m_abbr>  (941) 
mePhe_2Me

>  <m_name>  (941) 
NMe-L-2-methylphenylalanine

>  <m_type>  (941) 
aa

>  <m_subtype>  (941) 
modified

>  <m_Rgroups>  (941) 
[H],[OH]

>  <m_chem_types>  (941) 
1:backbone_n,2:backbone_c

>  <m_activation_policy>  (941) 
canonical-sites-v1

$$$$

     RDKit          2D

 15 15  0  0  0  0  0  0  0  0999 V2000
   -2.6971    2.1670    0.0000 R   0  0  0  0  0  1  0  0  0  0  0  0
   -1.4605    1.3179    0.0000 N   0  0  0  0  0  0  0  0  0  0  0  0
   -0.1069    1.9643    0.0000 C   0  0  0  0  0  0  0  0  0  0  0  0
   -1.5775   -0.1775    0.0000 C   0  0  0  0  0  0  0  0  0  0  0  0
   -0.3409   -1.0265    0.0000 C   0  0  0  0  0  0  0  0  0  0  0  0
    1.0127   -0.3802    0.0000 C   0  0  0  0  0  0  0  0  0  0  0  0
    1.1297    1.1153    0.0000 C   0  0  0  0  0  0  0  0  0  0  0  0
    2.4833    1.7617    0.0000 C   0  0  0  0  0  0  0  0  0  0  0  0
    3.7198    0.9126    0.0000 C   0  0  0  0  0  0  0  0  0  0  0  0
    3.6028   -0.5828    0.0000 C   0  0  0  0  0  0  0  0  0  0  0  0
    2.2492   -1.2292    0.0000 C   0  0  0  0  0  0  0  0  0  0  0  0
    2.1322   -2.7246    0.0000 C   0  0  0  0  0  0  0  0  0  0  0  0
   -2.9311   -0.8239    0.0000 C   0  0  0  0  0  0  0  0  0  0  0  0
   -4.1677    0.0252    0.0000 R   0  0  0  0  0  1  0  0  0  0  0  0
   -3.0481   -2.3193    0.0000 O   0  0  0  0  0  0  0  0  0  0  0  0
  1  2  1  0
  2  3  1  0
  2  4  1  0
  4  5  1  6
  5  6  1  0
  6  7  2  0
  7  8  1  0
  8  9  2  0
  9 10  1  0
 10 11  2  0
 11 12  1  0
  4 13  1  0
 13 14  1  0
 13 15  2  0
 11  6  1  0
M  ISO  2   1   1  14   2
M  END
>  <symbol>  (942) 
D_mePhe_2Me

>  <m_abbr>  (942) 
D_mePhe_2Me

>  <m_name>  (942) 
NMe-D-2-methylphenylalanine

>  <m_type>  (942) 
aa

>  <m_subtype>  (942) 
modified

>  <m_Rgroups>  (942) 
[H],[OH]

>  <m_chem_types>  (942) 
1:backbone_n,2:backbone_c

>  <m_activation_policy>  (942) 
canonical-sites-v1

$$$$

     RDKit          2D

 17 17  0  0  0  0  0  0  0  0999 V2000
   -3.1584    2.3389    0.0000 R   0  0  0  0  0  1  0  0  0  0  0  0
   -2.1065    1.2696    0.0000 N   0  0  0  0  0  0  0  0  0  0  0  0
   -0.6545    1.6460    0.0000 C   0  0  0  0  0  0  0  0  0  0  0  0
   -2.5066   -0.1760    0.0000 C   0  0  0  0  0  0  0  0  0  0  0  0
   -1.4547   -1.2454    0.0000 C   0  0  0  0  0  0  0  0  0  0  0  0
   -0.0026   -0.8690    0.0000 C   0  0  0  0  0  0  0  0  0  0  0  0
    0.3974    0.5766    0.0000 C   0  0  0  0  0  0  0  0  0  0  0  0
    1.8495    0.9530    0.0000 C   0  0  0  0  0  0  0  0  0  0  0  0
    2.9014   -0.1163    0.0000 C   0  0  0  0  0  0  0  0  0  0  0  0
    4.3534    0.2600    0.0000 N   0  0  0  0  0  0  0  0  0  0  0  0
    5.4054   -0.8093    0.0000 C   0  0  0  0  0  0  0  0  0  0  0  0
    4.7535    1.7057    0.0000 C   0  0  0  0  0  0  0  0  0  0  0  0
    2.5013   -1.5620    0.0000 C   0  0  0  0  0  0  0  0  0  0  0  0
    1.0493   -1.9383    0.0000 C   0  0  0  0  0  0  0  0  0  0  0  0
   -3.9586   -0.5524    0.0000 C   0  0  0  0  0  0  0  0  0  0  0  0
   -5.0106    0.5169    0.0000 R   0  0  0  0  0  1  0  0  0  0  0  0
   -4.3587   -1.9980    0.0000 O   0  0  0  0  0  0  0  0  0  0  0  0
  1  2  1  0
  2  3  1  0
  2  4  1  0
  4  5  1  1
  5  6  1  0
  6  7  1  0
  7  8  2  0
  8  9  1  0
  9 10  1  0
 10 11  1  0
 10 12  1  0
  9 13  2  0
 13 14  1  0
  4 15  1  0
 15 16  1  0
 15 17  2  0
 14  6  2  0
M  ISO  2   1   1  16   2
M  END
>  <symbol>  (943) 
mePhe_4NMe2

>  <m_abbr>  (943) 
mePhe_4NMe2

>  <m_name>  (943) 
NMe-L-4-dimethylaminophenylalanine

>  <m_type>  (943) 
aa

>  <m_subtype>  (943) 
modified

>  <m_Rgroups>  (943) 
[H],[OH]

>  <m_chem_types>  (943) 
1:backbone_n,2:backbone_c

>  <m_activation_policy>  (943) 
canonical-sites-v1

$$$$

     RDKit          2D

 17 17  0  0  0  0  0  0  0  0999 V2000
   -3.1584    2.3389    0.0000 R   0  0  0  0  0  1  0  0  0  0  0  0
   -2.1065    1.2696    0.0000 N   0  0  0  0  0  0  0  0  0  0  0  0
   -0.6545    1.6460    0.0000 C   0  0  0  0  0  0  0  0  0  0  0  0
   -2.5066   -0.1760    0.0000 C   0  0  0  0  0  0  0  0  0  0  0  0
   -1.4547   -1.2454    0.0000 C   0  0  0  0  0  0  0  0  0  0  0  0
   -0.0026   -0.8690    0.0000 C   0  0  0  0  0  0  0  0  0  0  0  0
    0.3974    0.5766    0.0000 C   0  0  0  0  0  0  0  0  0  0  0  0
    1.8495    0.9530    0.0000 C   0  0  0  0  0  0  0  0  0  0  0  0
    2.9014   -0.1163    0.0000 C   0  0  0  0  0  0  0  0  0  0  0  0
    4.3534    0.2600    0.0000 N   0  0  0  0  0  0  0  0  0  0  0  0
    5.4054   -0.8093    0.0000 C   0  0  0  0  0  0  0  0  0  0  0  0
    4.7535    1.7057    0.0000 C   0  0  0  0  0  0  0  0  0  0  0  0
    2.5013   -1.5620    0.0000 C   0  0  0  0  0  0  0  0  0  0  0  0
    1.0493   -1.9383    0.0000 C   0  0  0  0  0  0  0  0  0  0  0  0
   -3.9586   -0.5524    0.0000 C   0  0  0  0  0  0  0  0  0  0  0  0
   -5.0106    0.5169    0.0000 R   0  0  0  0  0  1  0  0  0  0  0  0
   -4.3587   -1.9980    0.0000 O   0  0  0  0  0  0  0  0  0  0  0  0
  1  2  1  0
  2  3  1  0
  2  4  1  0
  4  5  1  6
  5  6  1  0
  6  7  1  0
  7  8  2  0
  8  9  1  0
  9 10  1  0
 10 11  1  0
 10 12  1  0
  9 13  2  0
 13 14  1  0
  4 15  1  0
 15 16  1  0
 15 17  2  0
 14  6  2  0
M  ISO  2   1   1  16   2
M  END
>  <symbol>  (944) 
D_mePhe_4NMe2

>  <m_abbr>  (944) 
D_mePhe_4NMe2

>  <m_name>  (944) 
NMe-D-4-dimethylaminophenylalanine

>  <m_type>  (944) 
aa

>  <m_subtype>  (944) 
modified

>  <m_Rgroups>  (944) 
[H],[OH]

>  <m_chem_types>  (944) 
1:backbone_n,2:backbone_c

>  <m_activation_policy>  (944) 
canonical-sites-v1

$$$$

     RDKit          2D

 19 20  0  0  0  0  0  0  0  0999 V2000
   -4.2806   -1.4552    0.0000 R   0  0  0  0  0  1  0  0  0  0  0  0
   -2.8579   -0.9798    0.0000 N   0  0  0  0  0  0  0  0  0  0  0  0
   -1.7348   -1.9742    0.0000 C   0  0  0  0  0  0  0  0  0  0  0  0
   -2.5582    0.4900    0.0000 C   0  0  0  0  0  0  0  0  0  0  0  0
   -1.1356    0.9654    0.0000 C   0  0  0  0  0  0  0  0  0  0  0  0
   -0.0125   -0.0290    0.0000 C   0  0  0  0  0  0  0  0  0  0  0  0
   -0.1569   -1.5220    0.0000 C   0  0  0  0  0  0  0  0  0  0  0  0
    1.2185   -2.1207    0.0000 N   0  0  0  0  0  0  0  0  0  0  0  0
    1.5425   -3.5853    0.0000 R   0  0  0  0  0  1  0  0  0  0  0  0
    2.2128   -0.9977    0.0000 C   0  0  0  0  0  0  0  0  0  0  0  0
    3.7128   -0.9852    0.0000 C   0  0  0  0  0  0  0  0  0  0  0  0
    4.4519    0.3200    0.0000 C   0  0  0  0  0  0  0  0  0  0  0  0
    3.6912    1.6128    0.0000 C   0  0  0  0  0  0  0  0  0  0  0  0
    4.4303    2.9180    0.0000 F   0  0  0  0  0  0  0  0  0  0  0  0
    2.1912    1.6003    0.0000 C   0  0  0  0  0  0  0  0  0  0  0  0
    1.4521    0.2951    0.0000 C   0  0  0  0  0  0  0  0  0  0  0  0
   -3.6813    1.4844    0.0000 C   0  0  0  0  0  0  0  0  0  0  0  0
   -5.1039    1.0090    0.0000 R   0  0  0  0  0  1  0  0  0  0  0  0
   -3.3816    2.9541    0.0000 O   0  0  0  0  0  0  0  0  0  0  0  0
  1  2  1  0
  2  3  1  0
  2  4  1  0
  4  5  1  6
  5  6  1  0
  6  7  2  0
  7  8  1  0
  8  9  1  0
  8 10  1  0
 10 11  1  0
 11 12  2  0
 12 13  1  0
 13 14  1  0
 13 15  2  0
 15 16  1  0
  4 17  1  0
 17 18  1  0
 17 19  2  0
 16  6  1  0
 16 10  2  0
M  ISO  3   1   1   9   4  18   2
M  END
>  <symbol>  (945) 
meTrp_6F

>  <m_abbr>  (945) 
meTrp_6F

>  <m_name>  (945) 
NMe-L-6-fluorotryptophan

>  <m_type>  (945) 
aa

>  <m_subtype>  (945) 
modified

>  <m_Rgroups>  (945) 
[H],[OH],None,[H]

>  <m_chem_types>  (945) 
1:backbone_n,2:backbone_c,4:aromatic_nh

>  <m_activation_policy>  (945) 
canonical-sites-v1

$$$$

     RDKit          2D

 19 20  0  0  0  0  0  0  0  0999 V2000
   -4.2806   -1.4552    0.0000 R   0  0  0  0  0  1  0  0  0  0  0  0
   -2.8579   -0.9798    0.0000 N   0  0  0  0  0  0  0  0  0  0  0  0
   -1.7348   -1.9742    0.0000 C   0  0  0  0  0  0  0  0  0  0  0  0
   -2.5582    0.4900    0.0000 C   0  0  0  0  0  0  0  0  0  0  0  0
   -1.1356    0.9654    0.0000 C   0  0  0  0  0  0  0  0  0  0  0  0
   -0.0125   -0.0290    0.0000 C   0  0  0  0  0  0  0  0  0  0  0  0
   -0.1569   -1.5220    0.0000 C   0  0  0  0  0  0  0  0  0  0  0  0
    1.2185   -2.1207    0.0000 N   0  0  0  0  0  0  0  0  0  0  0  0
    1.5425   -3.5853    0.0000 R   0  0  0  0  0  1  0  0  0  0  0  0
    2.2128   -0.9977    0.0000 C   0  0  0  0  0  0  0  0  0  0  0  0
    3.7128   -0.9852    0.0000 C   0  0  0  0  0  0  0  0  0  0  0  0
    4.4519    0.3200    0.0000 C   0  0  0  0  0  0  0  0  0  0  0  0
    3.6912    1.6128    0.0000 C   0  0  0  0  0  0  0  0  0  0  0  0
    4.4303    2.9180    0.0000 F   0  0  0  0  0  0  0  0  0  0  0  0
    2.1912    1.6003    0.0000 C   0  0  0  0  0  0  0  0  0  0  0  0
    1.4521    0.2951    0.0000 C   0  0  0  0  0  0  0  0  0  0  0  0
   -3.6813    1.4844    0.0000 C   0  0  0  0  0  0  0  0  0  0  0  0
   -5.1039    1.0090    0.0000 R   0  0  0  0  0  1  0  0  0  0  0  0
   -3.3816    2.9541    0.0000 O   0  0  0  0  0  0  0  0  0  0  0  0
  1  2  1  0
  2  3  1  0
  2  4  1  0
  4  5  1  1
  5  6  1  0
  6  7  2  0
  7  8  1  0
  8  9  1  0
  8 10  1  0
 10 11  1  0
 11 12  2  0
 12 13  1  0
 13 14  1  0
 13 15  2  0
 15 16  1  0
  4 17  1  0
 17 18  1  0
 17 19  2  0
 16  6  1  0
 16 10  2  0
M  ISO  3   1   1   9   4  18   2
M  END
>  <symbol>  (946) 
D_meTrp_6F

>  <m_abbr>  (946) 
D_meTrp_6F

>  <m_name>  (946) 
NMe-D-6-fluorotryptophan

>  <m_type>  (946) 
aa

>  <m_subtype>  (946) 
modified

>  <m_Rgroups>  (946) 
[H],[OH],None,[H]

>  <m_chem_types>  (946) 
1:backbone_n,2:backbone_c,4:aromatic_nh

>  <m_activation_policy>  (946) 
canonical-sites-v1

$$$$

     RDKit          2D

 17 17  0  0  0  0  0  0  0  0999 V2000
   -3.1840    1.9825    0.0000 R   0  0  0  0  0  1  0  0  0  0  0  0
   -1.8948    1.2158    0.0000 N   0  0  0  0  0  0  0  0  0  0  0  0
   -0.5862    1.9489    0.0000 C   0  0  0  0  0  0  0  0  0  0  0  0
   -1.9142   -0.2841    0.0000 C   0  0  0  0  0  0  0  0  0  0  0  0
   -0.6249   -1.0508    0.0000 C   0  0  0  0  0  0  0  0  0  0  0  0
    0.6837   -0.3177    0.0000 C   0  0  0  0  0  0  0  0  0  0  0  0
    0.7031    1.1822    0.0000 C   0  0  0  0  0  0  0  0  0  0  0  0
    2.0117    1.9153    0.0000 C   0  0  0  0  0  0  0  0  0  0  0  0
    2.0311    3.4152    0.0000 I   0  0  0  0  0  0  0  0  0  0  0  0
    3.3009    1.1486    0.0000 C   0  0  0  0  0  0  0  0  0  0  0  0
    3.2815   -0.3513    0.0000 C   0  0  0  0  0  0  0  0  0  0  0  0
    1.9729   -1.0844    0.0000 C   0  0  0  0  0  0  0  0  0  0  0  0
    1.9535   -2.5843    0.0000 O   0  0  0  0  0  0  0  0  0  0  0  0
    3.2428   -3.3510    0.0000 R   0  0  0  0  0  1  0  0  0  0  0  0
   -3.2228   -1.0173    0.0000 C   0  0  0  0  0  0  0  0  0  0  0  0
   -4.5120   -0.2505    0.0000 R   0  0  0  0  0  1  0  0  0  0  0  0
   -3.2422   -2.5171    0.0000 O   0  0  0  0  0  0  0  0  0  0  0  0
  1  2  1  0
  2  3  1  0
  2  4  1  0
  4  5  1  1
  5  6  1  0
  6  7  1  0
  7  8  2  0
  8  9  1  0
  8 10  1  0
 10 11  2  0
 11 12  1  0
 12 13  1  0
 13 14  1  0
  4 15  1  0
 15 16  1  0
 15 17  2  0
 12  6  2  0
M  ISO  3   1   1  14   4  16   2
M  END
>  <symbol>  (947) 
meTyr_3I

>  <m_abbr>  (947) 
meTyr_3I

>  <m_name>  (947) 
NMe-L-3-iodotyrosine

>  <m_type>  (947) 
aa

>  <m_subtype>  (947) 
modified

>  <m_Rgroups>  (947) 
[H],[OH],None,[H]

>  <m_chem_types>  (947) 
1:backbone_n,2:backbone_c,4:aryl_phenol_o

>  <m_activation_policy>  (947) 
canonical-sites-v1

$$$$

     RDKit          2D

 17 17  0  0  0  0  0  0  0  0999 V2000
   -3.1840    1.9825    0.0000 R   0  0  0  0  0  1  0  0  0  0  0  0
   -1.8948    1.2158    0.0000 N   0  0  0  0  0  0  0  0  0  0  0  0
   -0.5862    1.9489    0.0000 C   0  0  0  0  0  0  0  0  0  0  0  0
   -1.9142   -0.2841    0.0000 C   0  0  0  0  0  0  0  0  0  0  0  0
   -0.6249   -1.0508    0.0000 C   0  0  0  0  0  0  0  0  0  0  0  0
    0.6837   -0.3177    0.0000 C   0  0  0  0  0  0  0  0  0  0  0  0
    0.7031    1.1822    0.0000 C   0  0  0  0  0  0  0  0  0  0  0  0
    2.0117    1.9153    0.0000 C   0  0  0  0  0  0  0  0  0  0  0  0
    2.0311    3.4152    0.0000 I   0  0  0  0  0  0  0  0  0  0  0  0
    3.3009    1.1486    0.0000 C   0  0  0  0  0  0  0  0  0  0  0  0
    3.2815   -0.3513    0.0000 C   0  0  0  0  0  0  0  0  0  0  0  0
    1.9729   -1.0844    0.0000 C   0  0  0  0  0  0  0  0  0  0  0  0
    1.9535   -2.5843    0.0000 O   0  0  0  0  0  0  0  0  0  0  0  0
    3.2428   -3.3510    0.0000 R   0  0  0  0  0  1  0  0  0  0  0  0
   -3.2228   -1.0173    0.0000 C   0  0  0  0  0  0  0  0  0  0  0  0
   -4.5120   -0.2505    0.0000 R   0  0  0  0  0  1  0  0  0  0  0  0
   -3.2422   -2.5171    0.0000 O   0  0  0  0  0  0  0  0  0  0  0  0
  1  2  1  0
  2  3  1  0
  2  4  1  0
  4  5  1  6
  5  6  1  0
  6  7  1  0
  7  8  2  0
  8  9  1  0
  8 10  1  0
 10 11  2  0
 11 12  1  0
 12 13  1  0
 13 14  1  0
  4 15  1  0
 15 16  1  0
 15 17  2  0
 12  6  2  0
M  ISO  3   1   1  14   4  16   2
M  END
>  <symbol>  (948) 
D_meTyr_3I

>  <m_abbr>  (948) 
D_meTyr_3I

>  <m_name>  (948) 
NMe-D-3-iodotyrosine

>  <m_type>  (948) 
aa

>  <m_subtype>  (948) 
modified

>  <m_Rgroups>  (948) 
[H],[OH],None,[H]

>  <m_chem_types>  (948) 
1:backbone_n,2:backbone_c,4:aryl_phenol_o

>  <m_activation_policy>  (948) 
canonical-sites-v1

$$$$

     RDKit          2D

  9  8  0  0  0  0  0  0  0  0999 V2000
   -2.2062    1.7302    0.0000 R   0  0  0  0  0  1  0  0  0  0  0  0
   -1.9487    0.2525    0.0000 N   0  0  0  0  0  0  0  0  0  0  0  0
   -3.0997   -0.7094    0.0000 R   0  0  0  0  0  1  0  0  0  0  0  0
   -0.5402   -0.2633    0.0000 C   0  0  0  0  0  0  0  0  0  0  0  0
   -0.2826   -1.7410    0.0000 C   0  0  0  0  0  0  0  0  0  0  0  0
    0.6108    0.6986    0.0000 C   0  0  0  0  0  0  0  0  0  0  0  0
    2.0193    0.1828    0.0000 C   0  0  0  0  0  0  0  0  0  0  0  0
    3.1703    1.1447    0.0000 R   0  0  0  0  0  1  0  0  0  0  0  0
    2.2769   -1.2950    0.0000 O   0  0  0  0  0  0  0  0  0  0  0  0
  1  2  1  0
  2  3  1  0
  2  4  1  0
  4  5  1  1
  4  6  1  0
  6  7  1  0
  7  8  1  0
  7  9  2  0
M  ISO  3   1   1   3   3   8   2
M  END
>  <symbol>  (949) 
D_bAbu

>  <m_abbr>  (949) 
D_bAbu

>  <m_name>  (949) 
D-3-aminobutyric acid (D-beta-aminobutyric acid)

>  <m_type>  (949) 
aa

>  <m_subtype>  (949) 
modified

>  <m_Rgroups>  (949) 
[H],[OH],[H]

>  <m_chem_types>  (949) 
1:backbone_n,2:backbone_c,3:backbone_n_mod

>  <m_activation_policy>  (949) 
canonical-sites-v1

$$$$

     RDKit          2D

 13 12  0  0  0  0  0  0  0  0999 V2000
   -4.0960   -0.1954    0.0000 R   0  0  0  0  0  1  0  0  0  0  0  0
   -2.7929   -0.9383    0.0000 N   0  0  0  0  0  0  0  0  0  0  0  0
   -2.7847   -2.4383    0.0000 R   0  0  0  0  0  1  0  0  0  0  0  0
   -1.4979   -0.1812    0.0000 C   0  0  0  0  0  0  0  0  0  0  0  0
   -0.1948   -0.9242    0.0000 C   0  0  0  0  0  0  0  0  0  0  0  0
    1.1001   -0.1671    0.0000 C   0  0  0  0  0  0  0  0  0  0  0  0
    2.4032   -0.9100    0.0000 C   0  0  0  0  0  0  0  0  0  0  0  0
    3.6982   -0.1529    0.0000 C   0  0  0  0  0  0  0  0  0  0  0  0
    5.0013   -0.8959    0.0000 R   0  0  0  0  0  1  0  0  0  0  0  0
    3.6900    1.3470    0.0000 O   0  0  0  0  0  0  0  0  0  0  0  0
   -1.5061    1.3187    0.0000 C   0  0  0  0  0  0  0  0  0  0  0  0
   -0.2112    2.0758    0.0000 R   0  0  0  0  0  1  0  0  0  0  0  0
   -2.8092    2.0617    0.0000 O   0  0  0  0  0  0  0  0  0  0  0  0
  1  2  1  0
  2  3  1  0
  2  4  1  0
  4  5  1  6
  5  6  1  0
  6  7  1  0
  7  8  1  0
  8  9  1  0
  8 10  2  0
  4 11  1  0
 11 12  1  0
 11 13  2  0
M  ISO  4   1   1   3   3   9   4  12   2
M  END
>  <symbol>  (950) 
hGlu

>  <m_abbr>  (950) 
hGlu

>  <m_name>  (950) 
L-homoglutamate (2-aminoadipic acid)

>  <m_type>  (950) 
aa

>  <m_subtype>  (950) 
modified

>  <m_Rgroups>  (950) 
[H],[OH],[H],[OH]

>  <m_chem_types>  (950) 
1:backbone_n,2:backbone_c,3:backbone_n_mod,4:carboxyl

>  <m_activation_policy>  (950) 
canonical-sites-v1

$$$$

     RDKit          2D

 13 12  0  0  0  0  0  0  0  0999 V2000
   -4.0960   -0.1954    0.0000 R   0  0  0  0  0  1  0  0  0  0  0  0
   -2.7929   -0.9383    0.0000 N   0  0  0  0  0  0  0  0  0  0  0  0
   -2.7847   -2.4383    0.0000 R   0  0  0  0  0  1  0  0  0  0  0  0
   -1.4979   -0.1812    0.0000 C   0  0  0  0  0  0  0  0  0  0  0  0
   -0.1948   -0.9242    0.0000 C   0  0  0  0  0  0  0  0  0  0  0  0
    1.1001   -0.1671    0.0000 C   0  0  0  0  0  0  0  0  0  0  0  0
    2.4032   -0.9100    0.0000 C   0  0  0  0  0  0  0  0  0  0  0  0
    3.6982   -0.1529    0.0000 C   0  0  0  0  0  0  0  0  0  0  0  0
    5.0013   -0.8959    0.0000 R   0  0  0  0  0  1  0  0  0  0  0  0
    3.6900    1.3470    0.0000 O   0  0  0  0  0  0  0  0  0  0  0  0
   -1.5061    1.3187    0.0000 C   0  0  0  0  0  0  0  0  0  0  0  0
   -0.2112    2.0758    0.0000 R   0  0  0  0  0  1  0  0  0  0  0  0
   -2.8092    2.0617    0.0000 O   0  0  0  0  0  0  0  0  0  0  0  0
  1  2  1  0
  2  3  1  0
  2  4  1  0
  4  5  1  1
  5  6  1  0
  6  7  1  0
  7  8  1  0
  8  9  1  0
  8 10  2  0
  4 11  1  0
 11 12  1  0
 11 13  2  0
M  ISO  4   1   1   3   3   9   4  12   2
M  END
>  <symbol>  (951) 
D_hGlu

>  <m_abbr>  (951) 
D_hGlu

>  <m_name>  (951) 
D-homoglutamate

>  <m_type>  (951) 
aa

>  <m_subtype>  (951) 
modified

>  <m_Rgroups>  (951) 
[H],[OH],[H],[OH]

>  <m_chem_types>  (951) 
1:backbone_n,2:backbone_c,3:backbone_n_mod,4:carboxyl

>  <m_activation_policy>  (951) 
canonical-sites-v1

$$$$

     RDKit          2D

 20 21  0  0  0  0  0  0  0  0999 V2000
   -4.8777    2.1947    0.0000 R   0  0  0  0  0  1  0  0  0  0  0  0
   -3.5309    1.5343    0.0000 N   0  0  0  0  0  0  0  0  0  0  0  0
   -2.2856    2.3704    0.0000 R   0  0  0  0  0  1  0  0  0  0  0  0
   -3.4295    0.0377    0.0000 C   0  0  0  0  0  0  0  0  0  0  0  0
   -2.0827   -0.6227    0.0000 C   0  0  0  0  0  0  0  0  0  0  0  0
   -0.8373    0.2134    0.0000 C   0  0  0  0  0  0  0  0  0  0  0  0
    0.5094   -0.4470    0.0000 C   0  0  0  0  0  0  0  0  0  0  0  0
    0.7668   -1.9247    0.0000 C   0  0  0  0  0  0  0  0  0  0  0  0
    2.2517   -2.1367    0.0000 N   0  0  0  0  0  0  0  0  0  0  0  0
    2.9531   -3.4626    0.0000 R   0  0  0  0  0  1  0  0  0  0  0  0
    2.9122   -0.7899    0.0000 C   0  0  0  0  0  0  0  0  0  0  0  0
    4.3549   -0.3795    0.0000 C   0  0  0  0  0  0  0  0  0  0  0  0
    4.7209    1.0752    0.0000 C   0  0  0  0  0  0  0  0  0  0  0  0
    6.1637    1.4856    0.0000 F   0  0  0  0  0  0  0  0  0  0  0  0
    3.6441    2.1195    0.0000 C   0  0  0  0  0  0  0  0  0  0  0  0
    2.2013    1.7091    0.0000 C   0  0  0  0  0  0  0  0  0  0  0  0
    1.8354    0.2544    0.0000 C   0  0  0  0  0  0  0  0  0  0  0  0
   -4.6748   -0.7984    0.0000 C   0  0  0  0  0  0  0  0  0  0  0  0
   -6.0216   -0.1380    0.0000 R   0  0  0  0  0  1  0  0  0  0  0  0
   -4.5734   -2.2950    0.0000 O   0  0  0  0  0  0  0  0  0  0  0  0
  1  2  1  0
  2  3  1  0
  2  4  1  0
  4  5  1  1
  5  6  1  0
  6  7  1  0
  7  8  2  0
  8  9  1  0
  9 10  1  0
  9 11  1  0
 11 12  1  0
 12 13  2  0
 13 14  1  0
 13 15  1  0
 15 16  2  0
 16 17  1  0
  4 18  1  0
 18 19  1  0
 18 20  2  0
 17  7  1  0
 17 11  2  0
M  ISO  4   1   1   3   3  10   4  19   2
M  END
>  <symbol>  (952) 
hTrp_5F

>  <m_abbr>  (952) 
hTrp_5F

>  <m_name>  (952) 
L-homo-5-fluorotryptophan

>  <m_type>  (952) 
aa

>  <m_subtype>  (952) 
modified

>  <m_Rgroups>  (952) 
[H],[OH],[H],[H]

>  <m_chem_types>  (952) 
1:backbone_n,2:backbone_c,3:backbone_n_mod,4:aromatic_nh

>  <m_activation_policy>  (952) 
canonical-sites-v1

$$$$

     RDKit          2D

 20 21  0  0  0  0  0  0  0  0999 V2000
   -4.8777    2.1947    0.0000 R   0  0  0  0  0  1  0  0  0  0  0  0
   -3.5309    1.5343    0.0000 N   0  0  0  0  0  0  0  0  0  0  0  0
   -2.2856    2.3704    0.0000 R   0  0  0  0  0  1  0  0  0  0  0  0
   -3.4295    0.0377    0.0000 C   0  0  0  0  0  0  0  0  0  0  0  0
   -2.0827   -0.6227    0.0000 C   0  0  0  0  0  0  0  0  0  0  0  0
   -0.8373    0.2134    0.0000 C   0  0  0  0  0  0  0  0  0  0  0  0
    0.5094   -0.4470    0.0000 C   0  0  0  0  0  0  0  0  0  0  0  0
    0.7668   -1.9247    0.0000 C   0  0  0  0  0  0  0  0  0  0  0  0
    2.2517   -2.1367    0.0000 N   0  0  0  0  0  0  0  0  0  0  0  0
    2.9531   -3.4626    0.0000 R   0  0  0  0  0  1  0  0  0  0  0  0
    2.9122   -0.7899    0.0000 C   0  0  0  0  0  0  0  0  0  0  0  0
    4.3549   -0.3795    0.0000 C   0  0  0  0  0  0  0  0  0  0  0  0
    4.7209    1.0752    0.0000 C   0  0  0  0  0  0  0  0  0  0  0  0
    6.1637    1.4856    0.0000 F   0  0  0  0  0  0  0  0  0  0  0  0
    3.6441    2.1195    0.0000 C   0  0  0  0  0  0  0  0  0  0  0  0
    2.2013    1.7091    0.0000 C   0  0  0  0  0  0  0  0  0  0  0  0
    1.8354    0.2544    0.0000 C   0  0  0  0  0  0  0  0  0  0  0  0
   -4.6748   -0.7984    0.0000 C   0  0  0  0  0  0  0  0  0  0  0  0
   -6.0216   -0.1380    0.0000 R   0  0  0  0  0  1  0  0  0  0  0  0
   -4.5734   -2.2950    0.0000 O   0  0  0  0  0  0  0  0  0  0  0  0
  1  2  1  0
  2  3  1  0
  2  4  1  0
  4  5  1  6
  5  6  1  0
  6  7  1  0
  7  8  2  0
  8  9  1  0
  9 10  1  0
  9 11  1  0
 11 12  1  0
 12 13  2  0
 13 14  1  0
 13 15  1  0
 15 16  2  0
 16 17  1  0
  4 18  1  0
 18 19  1  0
 18 20  2  0
 17  7  1  0
 17 11  2  0
M  ISO  4   1   1   3   3  10   4  19   2
M  END
>  <symbol>  (953) 
D_hTrp_5F

>  <m_abbr>  (953) 
D_hTrp_5F

>  <m_name>  (953) 
D-homo-5-fluorotryptophan

>  <m_type>  (953) 
aa

>  <m_subtype>  (953) 
modified

>  <m_Rgroups>  (953) 
[H],[OH],[H],[H]

>  <m_chem_types>  (953) 
1:backbone_n,2:backbone_c,3:backbone_n_mod,4:aromatic_nh

>  <m_activation_policy>  (953) 
canonical-sites-v1

$$$$

     RDKit          2D

 18 18  0  0  0  0  0  0  0  0999 V2000
   -0.3806    1.0518    0.0000 R   0  0  0  0  0  1  0  0  0  0  0  0
   -1.3593    1.1559    0.0000 N   0  0  0  0  0  0  0  0  0  0  0  0
   -1.6178    2.6335    0.0000 R   0  0  0  0  0  1  0  0  0  0  0  0
   -2.5096    0.1932    0.0000 C   0  0  0  0  0  0  0  0  0  0  0  0
   -3.4723    1.3436    0.0000 C   0  0  0  0  0  0  0  0  0  0  0  0
   -1.5469   -0.9571    0.0000 C   0  0  0  0  0  0  0  0  0  0  0  0
   -0.0694   -0.6985    0.0000 C   0  0  0  0  0  0  0  0  0  0  0  0
    0.4455    0.7103    0.0000 C   0  0  0  0  0  0  0  0  0  0  0  0
    1.9231    0.9689    0.0000 C   0  0  0  0  0  0  0  0  0  0  0  0
    2.8857   -0.1814    0.0000 C   0  0  0  0  0  0  0  0  0  0  0  0
    4.3633    0.0771    0.0000 N   0  0  0  0  0  0  0  0  0  0  0  0
    4.8782    1.4860    0.0000 O   0  0  0  0  0  0  0  0  0  0  0  0
    5.3260   -1.0732    0.0000 O   0  0  0  0  0  0  0  0  0  0  0  0
    2.3709   -1.5903    0.0000 C   0  0  0  0  0  0  0  0  0  0  0  0
    0.8933   -1.8488    0.0000 C   0  0  0  0  0  0  0  0  0  0  0  0
   -3.6599   -0.7695    0.0000 C   0  0  0  0  0  0  0  0  0  0  0  0
   -3.4014   -2.2470    0.0000 R   0  0  0  0  0  1  0  0  0  0  0  0
   -5.0688   -0.2546    0.0000 O   0  0  0  0  0  0  0  0  0  0  0  0
  1  2  1  0
  2  3  1  0
  2  4  1  0
  4  5  1  6
  4  6  1  0
  6  7  1  0
  7  8  1  0
  8  9  2  0
  9 10  1  0
 10 11  1  0
 11 12  2  0
 11 13  1  0
 10 14  2  0
 14 15  1  0
  4 16  1  0
 16 17  1  0
 16 18  2  0
 15  7  2  0
M  CHG  2  11   1  13  -1
M  ISO  3   1   1   3   3  17   2
M  END
>  <symbol>  (954) 
aMePhe_4NO2

>  <m_abbr>  (954) 
aMePhe_4NO2

>  <m_name>  (954) 
L-alpha-methyl-4-nitrophenylalanine

>  <m_type>  (954) 
aa

>  <m_subtype>  (954) 
modified

>  <m_Rgroups>  (954) 
[H],[OH],[H]

>  <m_chem_types>  (954) 
1:backbone_n,2:backbone_c,3:backbone_n_mod

>  <m_activation_policy>  (954) 
canonical-sites-v1

$$$$

     RDKit          2D

 18 18  0  0  0  0  0  0  0  0999 V2000
   -0.3806    1.0518    0.0000 R   0  0  0  0  0  1  0  0  0  0  0  0
   -1.3593    1.1559    0.0000 N   0  0  0  0  0  0  0  0  0  0  0  0
   -1.6178    2.6335    0.0000 R   0  0  0  0  0  1  0  0  0  0  0  0
   -2.5096    0.1932    0.0000 C   0  0  0  0  0  0  0  0  0  0  0  0
   -3.4723    1.3436    0.0000 C   0  0  0  0  0  0  0  0  0  0  0  0
   -1.5469   -0.9571    0.0000 C   0  0  0  0  0  0  0  0  0  0  0  0
   -0.0694   -0.6985    0.0000 C   0  0  0  0  0  0  0  0  0  0  0  0
    0.4455    0.7103    0.0000 C   0  0  0  0  0  0  0  0  0  0  0  0
    1.9231    0.9689    0.0000 C   0  0  0  0  0  0  0  0  0  0  0  0
    2.8857   -0.1814    0.0000 C   0  0  0  0  0  0  0  0  0  0  0  0
    4.3633    0.0771    0.0000 N   0  0  0  0  0  0  0  0  0  0  0  0
    4.8782    1.4860    0.0000 O   0  0  0  0  0  0  0  0  0  0  0  0
    5.3260   -1.0732    0.0000 O   0  0  0  0  0  0  0  0  0  0  0  0
    2.3709   -1.5903    0.0000 C   0  0  0  0  0  0  0  0  0  0  0  0
    0.8933   -1.8488    0.0000 C   0  0  0  0  0  0  0  0  0  0  0  0
   -3.6599   -0.7695    0.0000 C   0  0  0  0  0  0  0  0  0  0  0  0
   -3.4014   -2.2470    0.0000 R   0  0  0  0  0  1  0  0  0  0  0  0
   -5.0688   -0.2546    0.0000 O   0  0  0  0  0  0  0  0  0  0  0  0
  1  2  1  0
  2  3  1  0
  2  4  1  0
  4  5  1  1
  4  6  1  0
  6  7  1  0
  7  8  1  0
  8  9  2  0
  9 10  1  0
 10 11  1  0
 11 12  2  0
 11 13  1  0
 10 14  2  0
 14 15  1  0
  4 16  1  0
 16 17  1  0
 16 18  2  0
 15  7  2  0
M  CHG  2  11   1  13  -1
M  ISO  3   1   1   3   3  17   2
M  END
>  <symbol>  (955) 
D_aMePhe_4NO2

>  <m_abbr>  (955) 
D_aMePhe_4NO2

>  <m_name>  (955) 
D-alpha-methyl-4-nitrophenylalanine

>  <m_type>  (955) 
aa

>  <m_subtype>  (955) 
modified

>  <m_Rgroups>  (955) 
[H],[OH],[H]

>  <m_chem_types>  (955) 
1:backbone_n,2:backbone_c,3:backbone_n_mod

>  <m_activation_policy>  (955) 
canonical-sites-v1

$$$$

     RDKit          2D

 18 18  0  0  0  0  0  0  0  0999 V2000
   -0.3806    1.0518    0.0000 R   0  0  0  0  0  1  0  0  0  0  0  0
   -1.3593    1.1559    0.0000 N   0  0  0  0  0  0  0  0  0  0  0  0
   -1.6178    2.6335    0.0000 R   0  0  0  0  0  1  0  0  0  0  0  0
   -2.5096    0.1932    0.0000 C   0  0  0  0  0  0  0  0  0  0  0  0
   -3.4723    1.3436    0.0000 C   0  0  0  0  0  0  0  0  0  0  0  0
   -1.5469   -0.9571    0.0000 C   0  0  0  0  0  0  0  0  0  0  0  0
   -0.0694   -0.6985    0.0000 C   0  0  0  0  0  0  0  0  0  0  0  0
    0.4455    0.7103    0.0000 C   0  0  0  0  0  0  0  0  0  0  0  0
    1.9231    0.9689    0.0000 C   0  0  0  0  0  0  0  0  0  0  0  0
    2.8857   -0.1814    0.0000 C   0  0  0  0  0  0  0  0  0  0  0  0
    4.3633    0.0771    0.0000 N   0  0  0  0  0  0  0  0  0  0  0  0
    5.3260   -1.0732    0.0000 R   0  0  0  0  0  1  0  0  0  0  0  0
    4.8782    1.4860    0.0000 R   0  0  0  0  0  1  0  0  0  0  0  0
    2.3709   -1.5903    0.0000 C   0  0  0  0  0  0  0  0  0  0  0  0
    0.8933   -1.8488    0.0000 C   0  0  0  0  0  0  0  0  0  0  0  0
   -3.6599   -0.7695    0.0000 C   0  0  0  0  0  0  0  0  0  0  0  0
   -3.4014   -2.2470    0.0000 R   0  0  0  0  0  1  0  0  0  0  0  0
   -5.0688   -0.2546    0.0000 O   0  0  0  0  0  0  0  0  0  0  0  0
  1  2  1  0
  2  3  1  0
  2  4  1  0
  4  5  1  6
  4  6  1  0
  6  7  1  0
  7  8  1  0
  8  9  2  0
  9 10  1  0
 10 11  1  0
 11 12  1  0
 11 13  1  0
 10 14  2  0
 14 15  1  0
  4 16  1  0
 16 17  1  0
 16 18  2  0
 15  7  2  0
M  ISO  5   1   1   3   3  12   4  13   5  17   2
M  END
>  <symbol>  (956) 
aMePhe_4NH2

>  <m_abbr>  (956) 
aMePhe_4NH2

>  <m_name>  (956) 
L-alpha-methyl-4-aminophenylalanine

>  <m_type>  (956) 
aa

>  <m_subtype>  (956) 
modified

>  <m_Rgroups>  (956) 
[H],[OH],[H],[H],[H]

>  <m_chem_types>  (956) 
1:backbone_n,2:backbone_c,3:backbone_n_mod,4:amine_primary,5:amine_primary

>  <m_activation_policy>  (956) 
canonical-sites-v1

$$$$

     RDKit          2D

 18 18  0  0  0  0  0  0  0  0999 V2000
   -0.3806    1.0518    0.0000 R   0  0  0  0  0  1  0  0  0  0  0  0
   -1.3593    1.1559    0.0000 N   0  0  0  0  0  0  0  0  0  0  0  0
   -1.6178    2.6335    0.0000 R   0  0  0  0  0  1  0  0  0  0  0  0
   -2.5096    0.1932    0.0000 C   0  0  0  0  0  0  0  0  0  0  0  0
   -3.4723    1.3436    0.0000 C   0  0  0  0  0  0  0  0  0  0  0  0
   -1.5469   -0.9571    0.0000 C   0  0  0  0  0  0  0  0  0  0  0  0
   -0.0694   -0.6985    0.0000 C   0  0  0  0  0  0  0  0  0  0  0  0
    0.4455    0.7103    0.0000 C   0  0  0  0  0  0  0  0  0  0  0  0
    1.9231    0.9689    0.0000 C   0  0  0  0  0  0  0  0  0  0  0  0
    2.8857   -0.1814    0.0000 C   0  0  0  0  0  0  0  0  0  0  0  0
    4.3633    0.0771    0.0000 N   0  0  0  0  0  0  0  0  0  0  0  0
    5.3260   -1.0732    0.0000 R   0  0  0  0  0  1  0  0  0  0  0  0
    4.8782    1.4860    0.0000 R   0  0  0  0  0  1  0  0  0  0  0  0
    2.3709   -1.5903    0.0000 C   0  0  0  0  0  0  0  0  0  0  0  0
    0.8933   -1.8488    0.0000 C   0  0  0  0  0  0  0  0  0  0  0  0
   -3.6599   -0.7695    0.0000 C   0  0  0  0  0  0  0  0  0  0  0  0
   -3.4014   -2.2470    0.0000 R   0  0  0  0  0  1  0  0  0  0  0  0
   -5.0688   -0.2546    0.0000 O   0  0  0  0  0  0  0  0  0  0  0  0
  1  2  1  0
  2  3  1  0
  2  4  1  0
  4  5  1  1
  4  6  1  0
  6  7  1  0
  7  8  1  0
  8  9  2  0
  9 10  1  0
 10 11  1  0
 11 12  1  0
 11 13  1  0
 10 14  2  0
 14 15  1  0
  4 16  1  0
 16 17  1  0
 16 18  2  0
 15  7  2  0
M  ISO  5   1   1   3   3  12   4  13   5  17   2
M  END
>  <symbol>  (957) 
D_aMePhe_4NH2

>  <m_abbr>  (957) 
D_aMePhe_4NH2

>  <m_name>  (957) 
D-alpha-methyl-4-aminophenylalanine

>  <m_type>  (957) 
aa

>  <m_subtype>  (957) 
modified

>  <m_Rgroups>  (957) 
[H],[OH],[H],[H],[H]

>  <m_chem_types>  (957) 
1:backbone_n,2:backbone_c,3:backbone_n_mod,4:amine_primary,5:amine_primary

>  <m_activation_policy>  (957) 
canonical-sites-v1

$$$$

     RDKit          2D

 16 16  0  0  0  0  0  0  0  0999 V2000
   -2.4487    1.7634    0.0000 R   0  0  0  0  0  1  0  0  0  0  0  0
   -1.1442    1.0229    0.0000 N   0  0  0  0  0  0  0  0  0  0  0  0
    0.1493    1.7824    0.0000 R   0  0  0  0  0  1  0  0  0  0  0  0
   -1.1332   -0.4771    0.0000 C   0  0  0  0  0  0  0  0  0  0  0  0
   -2.4267   -1.2365    0.0000 C   0  0  0  0  0  0  0  0  0  0  0  0
   -3.7312   -0.4961    0.0000 C   0  0  0  0  0  0  0  0  0  0  0  0
   -5.0247   -1.2556    0.0000 R   0  0  0  0  0  1  0  0  0  0  0  0
   -3.7422    1.0039    0.0000 O   0  0  0  0  0  0  0  0  0  0  0  0
    0.1713   -1.2175    0.0000 C   0  0  0  0  0  0  0  0  0  0  0  0
    1.4648   -0.4580    0.0000 C   0  0  0  0  0  0  0  0  0  0  0  0
    1.4538    1.0419    0.0000 C   0  0  0  0  0  0  0  0  0  0  0  0
    2.7473    1.8014    0.0000 C   0  0  0  0  0  0  0  0  0  0  0  0
    4.0518    1.0609    0.0000 C   0  0  0  0  0  0  0  0  0  0  0  0
    4.0628   -0.4390    0.0000 C   0  0  0  0  0  0  0  0  0  0  0  0
    2.7693   -1.1985    0.0000 C   0  0  0  0  0  0  0  0  0  0  0  0
    2.7803   -2.6985    0.0000 F   0  0  0  0  0  0  0  0  0  0  0  0
  1  2  1  0
  2  3  1  0
  2  4  1  0
  4  5  1  1
  5  6  1  0
  6  7  1  0
  6  8  2  0
  4  9  1  0
  9 10  1  0
 10 11  2  0
 11 12  1  0
 12 13  2  0
 13 14  1  0
 14 15  2  0
 15 16  1  0
 15 10  1  0
M  ISO  3   1   1   3   3   7   2
M  END
>  <symbol>  (958) 
b3hPhe_2F

>  <m_abbr>  (958) 
b3hPhe_2F

>  <m_name>  (958) 
L-beta3-homo-2-fluorophenylalanine

>  <m_type>  (958) 
aa

>  <m_subtype>  (958) 
modified

>  <m_Rgroups>  (958) 
[H],[OH],[H]

>  <m_chem_types>  (958) 
1:backbone_n,2:backbone_c,3:backbone_n_mod

>  <m_activation_policy>  (958) 
canonical-sites-v1

$$$$

     RDKit          2D

 16 16  0  0  0  0  0  0  0  0999 V2000
   -2.4487    1.7634    0.0000 R   0  0  0  0  0  1  0  0  0  0  0  0
   -1.1442    1.0229    0.0000 N   0  0  0  0  0  0  0  0  0  0  0  0
    0.1493    1.7824    0.0000 R   0  0  0  0  0  1  0  0  0  0  0  0
   -1.1332   -0.4771    0.0000 C   0  0  0  0  0  0  0  0  0  0  0  0
   -2.4267   -1.2365    0.0000 C   0  0  0  0  0  0  0  0  0  0  0  0
   -3.7312   -0.4961    0.0000 C   0  0  0  0  0  0  0  0  0  0  0  0
   -5.0247   -1.2556    0.0000 R   0  0  0  0  0  1  0  0  0  0  0  0
   -3.7422    1.0039    0.0000 O   0  0  0  0  0  0  0  0  0  0  0  0
    0.1713   -1.2175    0.0000 C   0  0  0  0  0  0  0  0  0  0  0  0
    1.4648   -0.4580    0.0000 C   0  0  0  0  0  0  0  0  0  0  0  0
    1.4538    1.0419    0.0000 C   0  0  0  0  0  0  0  0  0  0  0  0
    2.7473    1.8014    0.0000 C   0  0  0  0  0  0  0  0  0  0  0  0
    4.0518    1.0609    0.0000 C   0  0  0  0  0  0  0  0  0  0  0  0
    4.0628   -0.4390    0.0000 C   0  0  0  0  0  0  0  0  0  0  0  0
    2.7693   -1.1985    0.0000 C   0  0  0  0  0  0  0  0  0  0  0  0
    2.7803   -2.6985    0.0000 F   0  0  0  0  0  0  0  0  0  0  0  0
  1  2  1  0
  2  3  1  0
  2  4  1  0
  4  5  1  6
  5  6  1  0
  6  7  1  0
  6  8  2  0
  4  9  1  0
  9 10  1  0
 10 11  2  0
 11 12  1  0
 12 13  2  0
 13 14  1  0
 14 15  2  0
 15 16  1  0
 15 10  1  0
M  ISO  3   1   1   3   3   7   2
M  END
>  <symbol>  (959) 
D_b3hPhe_2F

>  <m_abbr>  (959) 
D_b3hPhe_2F

>  <m_name>  (959) 
D-beta3-homo-2-fluorophenylalanine

>  <m_type>  (959) 
aa

>  <m_subtype>  (959) 
modified

>  <m_Rgroups>  (959) 
[H],[OH],[H]

>  <m_chem_types>  (959) 
1:backbone_n,2:backbone_c,3:backbone_n_mod

>  <m_activation_policy>  (959) 
canonical-sites-v1

$$$$

     RDKit          2D

 16 16  0  0  0  0  0  0  0  0999 V2000
   -2.5981    1.6875    0.0000 R   0  0  0  0  0  1  0  0  0  0  0  0
   -1.2990    0.9375    0.0000 N   0  0  0  0  0  0  0  0  0  0  0  0
    0.0000    1.6875    0.0000 R   0  0  0  0  0  1  0  0  0  0  0  0
   -1.2990   -0.5625    0.0000 C   0  0  0  0  0  0  0  0  0  0  0  0
   -2.5981   -1.3125    0.0000 C   0  0  0  0  0  0  0  0  0  0  0  0
   -3.8971   -0.5625    0.0000 C   0  0  0  0  0  0  0  0  0  0  0  0
   -5.1962   -1.3125    0.0000 R   0  0  0  0  0  1  0  0  0  0  0  0
   -3.8971    0.9375    0.0000 O   0  0  0  0  0  0  0  0  0  0  0  0
   -0.0000   -1.3125    0.0000 C   0  0  0  0  0  0  0  0  0  0  0  0
    1.2990   -0.5625    0.0000 C   0  0  0  0  0  0  0  0  0  0  0  0
    1.2990    0.9375    0.0000 C   0  0  0  0  0  0  0  0  0  0  0  0
    2.5981    1.6875    0.0000 C   0  0  0  0  0  0  0  0  0  0  0  0
    3.8971    0.9375    0.0000 C   0  0  0  0  0  0  0  0  0  0  0  0
    3.8971   -0.5625    0.0000 C   0  0  0  0  0  0  0  0  0  0  0  0
    5.1962   -1.3125    0.0000 F   0  0  0  0  0  0  0  0  0  0  0  0
    2.5981   -1.3125    0.0000 C   0  0  0  0  0  0  0  0  0  0  0  0
  1  2  1  0
  2  3  1  0
  2  4  1  0
  4  5  1  1
  5  6  1  0
  6  7  1  0
  6  8  2  0
  4  9  1  0
  9 10  1  0
 10 11  2  0
 11 12  1  0
 12 13  2  0
 13 14  1  0
 14 15  1  0
 14 16  2  0
 16 10  1  0
M  ISO  3   1   1   3   3   7   2
M  END
>  <symbol>  (960) 
b3hPhe_3F

>  <m_abbr>  (960) 
b3hPhe_3F

>  <m_name>  (960) 
L-beta3-homo-3-fluorophenylalanine

>  <m_type>  (960) 
aa

>  <m_subtype>  (960) 
modified

>  <m_Rgroups>  (960) 
[H],[OH],[H]

>  <m_chem_types>  (960) 
1:backbone_n,2:backbone_c,3:backbone_n_mod

>  <m_activation_policy>  (960) 
canonical-sites-v1

$$$$

     RDKit          2D

 16 16  0  0  0  0  0  0  0  0999 V2000
   -2.5981    1.6875    0.0000 R   0  0  0  0  0  1  0  0  0  0  0  0
   -1.2990    0.9375    0.0000 N   0  0  0  0  0  0  0  0  0  0  0  0
    0.0000    1.6875    0.0000 R   0  0  0  0  0  1  0  0  0  0  0  0
   -1.2990   -0.5625    0.0000 C   0  0  0  0  0  0  0  0  0  0  0  0
   -2.5981   -1.3125    0.0000 C   0  0  0  0  0  0  0  0  0  0  0  0
   -3.8971   -0.5625    0.0000 C   0  0  0  0  0  0  0  0  0  0  0  0
   -5.1962   -1.3125    0.0000 R   0  0  0  0  0  1  0  0  0  0  0  0
   -3.8971    0.9375    0.0000 O   0  0  0  0  0  0  0  0  0  0  0  0
   -0.0000   -1.3125    0.0000 C   0  0  0  0  0  0  0  0  0  0  0  0
    1.2990   -0.5625    0.0000 C   0  0  0  0  0  0  0  0  0  0  0  0
    1.2990    0.9375    0.0000 C   0  0  0  0  0  0  0  0  0  0  0  0
    2.5981    1.6875    0.0000 C   0  0  0  0  0  0  0  0  0  0  0  0
    3.8971    0.9375    0.0000 C   0  0  0  0  0  0  0  0  0  0  0  0
    3.8971   -0.5625    0.0000 C   0  0  0  0  0  0  0  0  0  0  0  0
    5.1962   -1.3125    0.0000 F   0  0  0  0  0  0  0  0  0  0  0  0
    2.5981   -1.3125    0.0000 C   0  0  0  0  0  0  0  0  0  0  0  0
  1  2  1  0
  2  3  1  0
  2  4  1  0
  4  5  1  6
  5  6  1  0
  6  7  1  0
  6  8  2  0
  4  9  1  0
  9 10  1  0
 10 11  2  0
 11 12  1  0
 12 13  2  0
 13 14  1  0
 14 15  1  0
 14 16  2  0
 16 10  1  0
M  ISO  3   1   1   3   3   7   2
M  END
>  <symbol>  (961) 
D_b3hPhe_3F

>  <m_abbr>  (961) 
D_b3hPhe_3F

>  <m_name>  (961) 
D-beta3-homo-3-fluorophenylalanine

>  <m_type>  (961) 
aa

>  <m_subtype>  (961) 
modified

>  <m_Rgroups>  (961) 
[H],[OH],[H]

>  <m_chem_types>  (961) 
1:backbone_n,2:backbone_c,3:backbone_n_mod

>  <m_activation_policy>  (961) 
canonical-sites-v1

$$$$

     RDKit          2D

 16 16  0  0  0  0  0  0  0  0999 V2000
   -2.8846    2.0969    0.0000 R   0  0  0  0  0  1  0  0  0  0  0  0
   -1.7127    1.1606    0.0000 N   0  0  0  0  0  0  0  0  0  0  0  0
   -0.3159    1.7073    0.0000 C   0  0  0  0  0  0  0  0  0  0  0  0
   -1.9376   -0.3225    0.0000 C   0  0  0  0  0  0  0  0  0  0  0  0
   -0.7657   -1.2588    0.0000 C   0  0  0  0  0  0  0  0  0  0  0  0
    0.6311   -0.7121    0.0000 C   0  0  0  0  0  0  0  0  0  0  0  0
    0.8560    0.7710    0.0000 C   0  0  0  0  0  0  0  0  0  0  0  0
    2.2528    1.3177    0.0000 C   0  0  0  0  0  0  0  0  0  0  0  0
    2.4777    2.8007    0.0000 F   0  0  0  0  0  0  0  0  0  0  0  0
    3.4247    0.3814    0.0000 C   0  0  0  0  0  0  0  0  0  0  0  0
    3.1998   -1.1016    0.0000 C   0  0  0  0  0  0  0  0  0  0  0  0
    4.3717   -2.0380    0.0000 F   0  0  0  0  0  0  0  0  0  0  0  0
    1.8030   -1.6484    0.0000 C   0  0  0  0  0  0  0  0  0  0  0  0
   -3.3344   -0.8692    0.0000 C   0  0  0  0  0  0  0  0  0  0  0  0
   -4.5063    0.0671    0.0000 R   0  0  0  0  0  1  0  0  0  0  0  0
   -3.5594   -2.3522    0.0000 O   0  0  0  0  0  0  0  0  0  0  0  0
  1  2  1  0
  2  3  1  0
  2  4  1  0
  4  5  1  1
  5  6  1  0
  6  7  2  0
  7  8  1  0
  8  9  1  0
  8 10  2  0
 10 11  1  0
 11 12  1  0
 11 13  2  0
  4 14  1  0
 14 15  1  0
 14 16  2  0
 13  6  1  0
M  ISO  2   1   1  15   2
M  END
>  <symbol>  (962) 
mePhe_35diF

>  <m_abbr>  (962) 
mePhe_35diF

>  <m_name>  (962) 
NMe-L-3,5-difluorophenylalanine

>  <m_type>  (962) 
aa

>  <m_subtype>  (962) 
modified

>  <m_Rgroups>  (962) 
[H],[OH]

>  <m_chem_types>  (962) 
1:backbone_n,2:backbone_c

>  <m_activation_policy>  (962) 
canonical-sites-v1

$$$$

     RDKit          2D

 16 16  0  0  0  0  0  0  0  0999 V2000
   -2.8846    2.0969    0.0000 R   0  0  0  0  0  1  0  0  0  0  0  0
   -1.7127    1.1606    0.0000 N   0  0  0  0  0  0  0  0  0  0  0  0
   -0.3159    1.7073    0.0000 C   0  0  0  0  0  0  0  0  0  0  0  0
   -1.9376   -0.3225    0.0000 C   0  0  0  0  0  0  0  0  0  0  0  0
   -0.7657   -1.2588    0.0000 C   0  0  0  0  0  0  0  0  0  0  0  0
    0.6311   -0.7121    0.0000 C   0  0  0  0  0  0  0  0  0  0  0  0
    0.8560    0.7710    0.0000 C   0  0  0  0  0  0  0  0  0  0  0  0
    2.2528    1.3177    0.0000 C   0  0  0  0  0  0  0  0  0  0  0  0
    2.4777    2.8007    0.0000 F   0  0  0  0  0  0  0  0  0  0  0  0
    3.4247    0.3814    0.0000 C   0  0  0  0  0  0  0  0  0  0  0  0
    3.1998   -1.1016    0.0000 C   0  0  0  0  0  0  0  0  0  0  0  0
    4.3717   -2.0380    0.0000 F   0  0  0  0  0  0  0  0  0  0  0  0
    1.8030   -1.6484    0.0000 C   0  0  0  0  0  0  0  0  0  0  0  0
   -3.3344   -0.8692    0.0000 C   0  0  0  0  0  0  0  0  0  0  0  0
   -4.5063    0.0671    0.0000 R   0  0  0  0  0  1  0  0  0  0  0  0
   -3.5594   -2.3522    0.0000 O   0  0  0  0  0  0  0  0  0  0  0  0
  1  2  1  0
  2  3  1  0
  2  4  1  0
  4  5  1  6
  5  6  1  0
  6  7  2  0
  7  8  1  0
  8  9  1  0
  8 10  2  0
 10 11  1  0
 11 12  1  0
 11 13  2  0
  4 14  1  0
 14 15  1  0
 14 16  2  0
 13  6  1  0
M  ISO  2   1   1  15   2
M  END
>  <symbol>  (963) 
D_mePhe_35diF

>  <m_abbr>  (963) 
D_mePhe_35diF

>  <m_name>  (963) 
NMe-D-3,5-difluorophenylalanine

>  <m_type>  (963) 
aa

>  <m_subtype>  (963) 
modified

>  <m_Rgroups>  (963) 
[H],[OH]

>  <m_chem_types>  (963) 
1:backbone_n,2:backbone_c

>  <m_activation_policy>  (963) 
canonical-sites-v1

$$$$

     RDKit          2D

 16 16  0  0  0  0  0  0  0  0999 V2000
   -3.0766    2.1502    0.0000 R   0  0  0  0  0  1  0  0  0  0  0  0
   -1.8854    1.2385    0.0000 N   0  0  0  0  0  0  0  0  0  0  0  0
   -0.5003    1.8143    0.0000 C   0  0  0  0  0  0  0  0  0  0  0  0
   -2.0794   -0.2489    0.0000 C   0  0  0  0  0  0  0  0  0  0  0  0
   -0.8882   -1.1605    0.0000 C   0  0  0  0  0  0  0  0  0  0  0  0
    0.4969   -0.5848    0.0000 C   0  0  0  0  0  0  0  0  0  0  0  0
    0.6908    0.9026    0.0000 C   0  0  0  0  0  0  0  0  0  0  0  0
    2.0759    1.4784    0.0000 C   0  0  0  0  0  0  0  0  0  0  0  0
    3.2671    0.5667    0.0000 C   0  0  0  0  0  0  0  0  0  0  0  0
    4.6522    1.1425    0.0000 Cl  0  0  0  0  0  0  0  0  0  0  0  0
    3.0732   -0.9207    0.0000 C   0  0  0  0  0  0  0  0  0  0  0  0
    4.2643   -1.8323    0.0000 Cl  0  0  0  0  0  0  0  0  0  0  0  0
    1.6881   -1.4964    0.0000 C   0  0  0  0  0  0  0  0  0  0  0  0
   -3.4645   -0.8246    0.0000 C   0  0  0  0  0  0  0  0  0  0  0  0
   -4.6556    0.0870    0.0000 R   0  0  0  0  0  1  0  0  0  0  0  0
   -3.6584   -2.3121    0.0000 O   0  0  0  0  0  0  0  0  0  0  0  0
  1  2  1  0
  2  3  1  0
  2  4  1  0
  4  5  1  1
  5  6  1  0
  6  7  1  0
  7  8  2  0
  8  9  1  0
  9 10  1  0
  9 11  2  0
 11 12  1  0
 11 13  1  0
  4 14  1  0
 14 15  1  0
 14 16  2  0
 13  6  2  0
M  ISO  2   1   1  15   2
M  END
>  <symbol>  (964) 
mePhe_34diCl

>  <m_abbr>  (964) 
mePhe_34diCl

>  <m_name>  (964) 
NMe-L-3,4-dichlorophenylalanine

>  <m_type>  (964) 
aa

>  <m_subtype>  (964) 
modified

>  <m_Rgroups>  (964) 
[H],[OH]

>  <m_chem_types>  (964) 
1:backbone_n,2:backbone_c

>  <m_activation_policy>  (964) 
canonical-sites-v1

$$$$

     RDKit          2D

 16 16  0  0  0  0  0  0  0  0999 V2000
   -3.0766    2.1502    0.0000 R   0  0  0  0  0  1  0  0  0  0  0  0
   -1.8854    1.2385    0.0000 N   0  0  0  0  0  0  0  0  0  0  0  0
   -0.5003    1.8143    0.0000 C   0  0  0  0  0  0  0  0  0  0  0  0
   -2.0794   -0.2489    0.0000 C   0  0  0  0  0  0  0  0  0  0  0  0
   -0.8882   -1.1605    0.0000 C   0  0  0  0  0  0  0  0  0  0  0  0
    0.4969   -0.5848    0.0000 C   0  0  0  0  0  0  0  0  0  0  0  0
    0.6908    0.9026    0.0000 C   0  0  0  0  0  0  0  0  0  0  0  0
    2.0759    1.4784    0.0000 C   0  0  0  0  0  0  0  0  0  0  0  0
    3.2671    0.5667    0.0000 C   0  0  0  0  0  0  0  0  0  0  0  0
    4.6522    1.1425    0.0000 Cl  0  0  0  0  0  0  0  0  0  0  0  0
    3.0732   -0.9207    0.0000 C   0  0  0  0  0  0  0  0  0  0  0  0
    4.2643   -1.8323    0.0000 Cl  0  0  0  0  0  0  0  0  0  0  0  0
    1.6881   -1.4964    0.0000 C   0  0  0  0  0  0  0  0  0  0  0  0
   -3.4645   -0.8246    0.0000 C   0  0  0  0  0  0  0  0  0  0  0  0
   -4.6556    0.0870    0.0000 R   0  0  0  0  0  1  0  0  0  0  0  0
   -3.6584   -2.3121    0.0000 O   0  0  0  0  0  0  0  0  0  0  0  0
  1  2  1  0
  2  3  1  0
  2  4  1  0
  4  5  1  6
  5  6  1  0
  6  7  1  0
  7  8  2  0
  8  9  1  0
  9 10  1  0
  9 11  2  0
 11 12  1  0
 11 13  1  0
  4 14  1  0
 14 15  1  0
 14 16  2  0
 13  6  2  0
M  ISO  2   1   1  15   2
M  END
>  <symbol>  (965) 
D_mePhe_34diCl

>  <m_abbr>  (965) 
D_mePhe_34diCl

>  <m_name>  (965) 
NMe-D-3,4-dichlorophenylalanine

>  <m_type>  (965) 
aa

>  <m_subtype>  (965) 
modified

>  <m_Rgroups>  (965) 
[H],[OH]

>  <m_chem_types>  (965) 
1:backbone_n,2:backbone_c

>  <m_activation_policy>  (965) 
canonical-sites-v1

$$$$

     RDKit          2D

 20 21  0  0  0  0  0  0  0  0999 V2000
   -4.8923    1.6576    0.0000 R   0  0  0  0  0  1  0  0  0  0  0  0
   -3.3966    1.5443    0.0000 N   0  0  0  0  0  0  0  0  0  0  0  0
   -2.5506    2.7830    0.0000 R   0  0  0  0  0  1  0  0  0  0  0  0
   -2.7468    0.1923    0.0000 C   0  0  0  0  0  0  0  0  0  0  0  0
   -4.0988   -0.4574    0.0000 C   0  0  0  0  0  0  0  0  0  0  0  0
   -1.3948    0.8421    0.0000 C   0  0  0  0  0  0  0  0  0  0  0  0
   -0.1562   -0.0039    0.0000 C   0  0  0  0  0  0  0  0  0  0  0  0
   -0.1125   -1.5033    0.0000 C   0  0  0  0  0  0  0  0  0  0  0  0
    1.3270   -1.9251    0.0000 N   0  0  0  0  0  0  0  0  0  0  0  0
    1.8318   -3.3376    0.0000 R   0  0  0  0  0  1  0  0  0  0  0  0
    2.1730   -0.6864    0.0000 C   0  0  0  0  0  0  0  0  0  0  0  0
    3.6595   -0.4863    0.0000 C   0  0  0  0  0  0  0  0  0  0  0  0
    4.2295    0.9012    0.0000 C   0  0  0  0  0  0  0  0  0  0  0  0
    5.7161    1.1014    0.0000 Br  0  0  0  0  0  0  0  0  0  0  0  0
    3.3129    2.0886    0.0000 C   0  0  0  0  0  0  0  0  0  0  0  0
    1.8263    1.8884    0.0000 C   0  0  0  0  0  0  0  0  0  0  0  0
    1.2563    0.5009    0.0000 C   0  0  0  0  0  0  0  0  0  0  0  0
   -2.0971   -1.1597    0.0000 C   0  0  0  0  0  0  0  0  0  0  0  0
   -0.9438   -1.5419    0.0000 R   0  0  0  0  0  1  0  0  0  0  0  0
   -2.9431   -2.3983    0.0000 O   0  0  0  0  0  0  0  0  0  0  0  0
  1  2  1  0
  2  3  1  0
  2  4  1  0
  4  5  1  6
  4  6  1  0
  6  7  1  0
  7  8  2  0
  8  9  1  0
  9 10  1  0
  9 11  1  0
 11 12  1  0
 12 13  2  0
 13 14  1  0
 13 15  1  0
 15 16  2  0
 16 17  1  0
  4 18  1  0
 18 19  1  0
 18 20  2  0
 17  7  1  0
 17 11  2  0
M  ISO  4   1   1   3   3  10   4  19   2
M  END
>  <symbol>  (966) 
aMeTrp_5Br

>  <m_abbr>  (966) 
aMeTrp_5Br

>  <m_name>  (966) 
L-alpha-methyl-5-bromotryptophan

>  <m_type>  (966) 
aa

>  <m_subtype>  (966) 
modified

>  <m_Rgroups>  (966) 
[H],[OH],[H],[H]

>  <m_chem_types>  (966) 
1:backbone_n,2:backbone_c,3:backbone_n_mod,4:aromatic_nh

>  <m_activation_policy>  (966) 
canonical-sites-v1

$$$$

     RDKit          2D

 20 21  0  0  0  0  0  0  0  0999 V2000
   -4.8923    1.6576    0.0000 R   0  0  0  0  0  1  0  0  0  0  0  0
   -3.3966    1.5443    0.0000 N   0  0  0  0  0  0  0  0  0  0  0  0
   -2.5506    2.7830    0.0000 R   0  0  0  0  0  1  0  0  0  0  0  0
   -2.7468    0.1923    0.0000 C   0  0  0  0  0  0  0  0  0  0  0  0
   -4.0988   -0.4574    0.0000 C   0  0  0  0  0  0  0  0  0  0  0  0
   -1.3948    0.8421    0.0000 C   0  0  0  0  0  0  0  0  0  0  0  0
   -0.1562   -0.0039    0.0000 C   0  0  0  0  0  0  0  0  0  0  0  0
   -0.1125   -1.5033    0.0000 C   0  0  0  0  0  0  0  0  0  0  0  0
    1.3270   -1.9251    0.0000 N   0  0  0  0  0  0  0  0  0  0  0  0
    1.8318   -3.3376    0.0000 R   0  0  0  0  0  1  0  0  0  0  0  0
    2.1730   -0.6864    0.0000 C   0  0  0  0  0  0  0  0  0  0  0  0
    3.6595   -0.4863    0.0000 C   0  0  0  0  0  0  0  0  0  0  0  0
    4.2295    0.9012    0.0000 C   0  0  0  0  0  0  0  0  0  0  0  0
    5.7161    1.1014    0.0000 Br  0  0  0  0  0  0  0  0  0  0  0  0
    3.3129    2.0886    0.0000 C   0  0  0  0  0  0  0  0  0  0  0  0
    1.8263    1.8884    0.0000 C   0  0  0  0  0  0  0  0  0  0  0  0
    1.2563    0.5009    0.0000 C   0  0  0  0  0  0  0  0  0  0  0  0
   -2.0971   -1.1597    0.0000 C   0  0  0  0  0  0  0  0  0  0  0  0
   -0.9438   -1.5419    0.0000 R   0  0  0  0  0  1  0  0  0  0  0  0
   -2.9431   -2.3983    0.0000 O   0  0  0  0  0  0  0  0  0  0  0  0
  1  2  1  0
  2  3  1  0
  2  4  1  0
  4  5  1  1
  4  6  1  0
  6  7  1  0
  7  8  2  0
  8  9  1  0
  9 10  1  0
  9 11  1  0
 11 12  1  0
 12 13  2  0
 13 14  1  0
 13 15  1  0
 15 16  2  0
 16 17  1  0
  4 18  1  0
 18 19  1  0
 18 20  2  0
 17  7  1  0
 17 11  2  0
M  ISO  4   1   1   3   3  10   4  19   2
M  END
>  <symbol>  (967) 
D_aMeTrp_5Br

>  <m_abbr>  (967) 
D_aMeTrp_5Br

>  <m_name>  (967) 
D-alpha-methyl-5-bromotryptophan

>  <m_type>  (967) 
aa

>  <m_subtype>  (967) 
modified

>  <m_Rgroups>  (967) 
[H],[OH],[H],[H]

>  <m_chem_types>  (967) 
1:backbone_n,2:backbone_c,3:backbone_n_mod,4:aromatic_nh

>  <m_activation_policy>  (967) 
canonical-sites-v1

$$$$

     RDKit          2D

  9  8  0  0  0  0  0  0  0  0999 V2000
   -2.2500    1.5877    0.0000 R   0  0  0  0  0  1  0  0  0  0  0  0
   -1.5000    0.2887    0.0000 N   0  0  0  0  0  0  0  0  0  0  0  0
   -2.2500   -1.0104    0.0000 R   0  0  0  0  0  1  0  0  0  0  0  0
    0.0000    0.2887    0.0000 C   0  0  0  0  0  0  0  0  0  0  0  0
    0.7500    1.5877    0.0000 C   0  0  0  0  0  0  0  0  0  0  0  0
    2.2500    1.5877    0.0000 F   0  0  0  0  0  0  0  0  0  0  0  0
    0.7500   -1.0104    0.0000 C   0  0  0  0  0  0  0  0  0  0  0  0
    2.2500   -1.0104    0.0000 R   0  0  0  0  0  1  0  0  0  0  0  0
    0.0000   -2.3094    0.0000 O   0  0  0  0  0  0  0  0  0  0  0  0
  1  2  1  0
  2  3  1  0
  2  4  1  0
  4  5  1  1
  5  6  1  0
  4  7  1  0
  7  8  1  0
  7  9  2  0
M  ISO  3   1   1   3   3   8   2
M  END
>  <symbol>  (968) 
Ala_3F

>  <m_abbr>  (968) 
Ala_3F

>  <m_name>  (968) 
L-beta-fluoroalanine

>  <m_type>  (968) 
aa

>  <m_subtype>  (968) 
modified

>  <m_Rgroups>  (968) 
[H],[OH],[H]

>  <m_chem_types>  (968) 
1:backbone_n,2:backbone_c,3:backbone_n_mod

>  <m_activation_policy>  (968) 
canonical-sites-v1

$$$$

     RDKit          2D

  9  8  0  0  0  0  0  0  0  0999 V2000
   -2.2500    1.5877    0.0000 R   0  0  0  0  0  1  0  0  0  0  0  0
   -1.5000    0.2887    0.0000 N   0  0  0  0  0  0  0  0  0  0  0  0
   -2.2500   -1.0104    0.0000 R   0  0  0  0  0  1  0  0  0  0  0  0
    0.0000    0.2887    0.0000 C   0  0  0  0  0  0  0  0  0  0  0  0
    0.7500    1.5877    0.0000 C   0  0  0  0  0  0  0  0  0  0  0  0
    2.2500    1.5877    0.0000 F   0  0  0  0  0  0  0  0  0  0  0  0
    0.7500   -1.0104    0.0000 C   0  0  0  0  0  0  0  0  0  0  0  0
    2.2500   -1.0104    0.0000 R   0  0  0  0  0  1  0  0  0  0  0  0
    0.0000   -2.3094    0.0000 O   0  0  0  0  0  0  0  0  0  0  0  0
  1  2  1  0
  2  3  1  0
  2  4  1  0
  4  5  1  6
  5  6  1  0
  4  7  1  0
  7  8  1  0
  7  9  2  0
M  ISO  3   1   1   3   3   8   2
M  END
>  <symbol>  (969) 
D_Ala_3F

>  <m_abbr>  (969) 
D_Ala_3F

>  <m_name>  (969) 
D-beta-fluoroalanine

>  <m_type>  (969) 
aa

>  <m_subtype>  (969) 
modified

>  <m_Rgroups>  (969) 
[H],[OH],[H]

>  <m_chem_types>  (969) 
1:backbone_n,2:backbone_c,3:backbone_n_mod

>  <m_activation_policy>  (969) 
canonical-sites-v1

$$$$

     RDKit          2D

 17 18  0  0  0  0  0  0  0  0999 V2000
   -3.8558   -2.3648    0.0000 R   0  0  0  0  0  1  0  0  0  0  0  0
   -2.8973   -1.2110    0.0000 N   0  0  0  0  0  0  0  0  0  0  0  0
   -1.4004   -1.3083    0.0000 C   0  0  0  0  0  0  0  0  0  0  0  0
   -0.8453    0.0852    0.0000 C   0  0  0  0  0  0  0  0  0  0  0  0
    0.6083    0.4552    0.0000 O   0  0  0  0  0  0  0  0  0  0  0  0
    1.6556   -0.6187    0.0000 C   0  0  0  0  0  0  0  0  0  0  0  0
    3.1092   -0.2487    0.0000 C   0  0  0  0  0  0  0  0  0  0  0  0
    4.1565   -1.3226    0.0000 C   0  0  0  0  0  0  0  0  0  0  0  0
    5.6101   -0.9526    0.0000 C   0  0  0  0  0  0  0  0  0  0  0  0
    6.0165    0.4913    0.0000 C   0  0  0  0  0  0  0  0  0  0  0  0
    4.9693    1.5652    0.0000 C   0  0  0  0  0  0  0  0  0  0  0  0
    3.5156    1.1952    0.0000 C   0  0  0  0  0  0  0  0  0  0  0  0
   -1.9991    1.0437    0.0000 C   0  0  0  0  0  0  0  0  0  0  0  0
   -3.2673    0.2427    0.0000 C   0  0  0  0  0  0  0  0  0  0  0  0
   -4.6608    0.7978    0.0000 C   0  0  0  0  0  0  0  0  0  0  0  0
   -4.8768    2.2821    0.0000 R   0  0  0  0  0  1  0  0  0  0  0  0
   -5.8383   -0.1315    0.0000 O   0  0  0  0  0  0  0  0  0  0  0  0
  1  2  1  0
  2  3  1  0
  3  4  1  0
  4  5  1  6
  5  6  1  0
  6  7  1  0
  7  8  2  0
  8  9  1  0
  9 10  2  0
 10 11  1  0
 11 12  2  0
  4 13  1  0
 13 14  1  0
 14 15  1  6
 15 16  1  0
 15 17  2  0
 14  2  1  0
 12  7  1  0
M  ISO  2   1   1  16   2
M  END
>  <symbol>  (970) 
Pro_4OBn

>  <m_abbr>  (970) 
Pro_4OBn

>  <m_name>  (970) 
L-trans-4-benzyloxypyrrolidine-2-carboxylic acid

>  <m_type>  (970) 
aa

>  <m_subtype>  (970) 
modified

>  <m_Rgroups>  (970) 
[H],[OH]

>  <m_chem_types>  (970) 
1:backbone_n,2:backbone_c

>  <m_activation_policy>  (970) 
canonical-sites-v1

$$$$

     RDKit          2D

 17 18  0  0  0  0  0  0  0  0999 V2000
   -3.8558   -2.3648    0.0000 R   0  0  0  0  0  1  0  0  0  0  0  0
   -2.8973   -1.2110    0.0000 N   0  0  0  0  0  0  0  0  0  0  0  0
   -1.4004   -1.3083    0.0000 C   0  0  0  0  0  0  0  0  0  0  0  0
   -0.8453    0.0852    0.0000 C   0  0  0  0  0  0  0  0  0  0  0  0
    0.6083    0.4552    0.0000 O   0  0  0  0  0  0  0  0  0  0  0  0
    1.6556   -0.6187    0.0000 C   0  0  0  0  0  0  0  0  0  0  0  0
    3.1092   -0.2487    0.0000 C   0  0  0  0  0  0  0  0  0  0  0  0
    4.1565   -1.3226    0.0000 C   0  0  0  0  0  0  0  0  0  0  0  0
    5.6101   -0.9526    0.0000 C   0  0  0  0  0  0  0  0  0  0  0  0
    6.0165    0.4913    0.0000 C   0  0  0  0  0  0  0  0  0  0  0  0
    4.9693    1.5652    0.0000 C   0  0  0  0  0  0  0  0  0  0  0  0
    3.5156    1.1952    0.0000 C   0  0  0  0  0  0  0  0  0  0  0  0
   -1.9991    1.0437    0.0000 C   0  0  0  0  0  0  0  0  0  0  0  0
   -3.2673    0.2427    0.0000 C   0  0  0  0  0  0  0  0  0  0  0  0
   -4.6608    0.7978    0.0000 C   0  0  0  0  0  0  0  0  0  0  0  0
   -4.8768    2.2821    0.0000 R   0  0  0  0  0  1  0  0  0  0  0  0
   -5.8383   -0.1315    0.0000 O   0  0  0  0  0  0  0  0  0  0  0  0
  1  2  1  0
  2  3  1  0
  3  4  1  0
  4  5  1  6
  5  6  1  0
  6  7  1  0
  7  8  2  0
  8  9  1  0
  9 10  2  0
 10 11  1  0
 11 12  2  0
  4 13  1  0
 13 14  1  0
 14 15  1  1
 15 16  1  0
 15 17  2  0
 14  2  1  0
 12  7  1  0
M  ISO  2   1   1  16   2
M  END
>  <symbol>  (971) 
D_Pro_4OBn

>  <m_abbr>  (971) 
D_Pro_4OBn

>  <m_name>  (971) 
D-trans-4-benzyloxypyrrolidine-2-carboxylic acid

>  <m_type>  (971) 
aa

>  <m_subtype>  (971) 
modified

>  <m_Rgroups>  (971) 
[H],[OH]

>  <m_chem_types>  (971) 
1:backbone_n,2:backbone_c

>  <m_activation_policy>  (971) 
canonical-sites-v1

$$$$

     RDKit          2D

 13 13  0  0  0  0  0  0  0  0999 V2000
   -2.0806    2.2134    0.0000 R   0  0  0  0  0  1  0  0  0  0  0  0
   -0.9264    1.2554    0.0000 N   0  0  0  0  0  0  0  0  0  0  0  0
    0.4804    1.7760    0.0000 R   0  0  0  0  0  1  0  0  0  0  0  0
   -1.1789   -0.2232    0.0000 C   0  0  0  0  0  0  0  0  0  0  0  0
   -0.0246   -1.1812    0.0000 C   0  0  0  0  0  0  0  0  0  0  0  0
    1.3821   -0.6606    0.0000 C   0  0  0  0  0  0  0  0  0  0  0  0
    2.6302   -1.4926    0.0000 C   0  0  0  0  0  0  0  0  0  0  0  0
    3.8072   -0.5628    0.0000 C   0  0  0  0  0  0  0  0  0  0  0  0
    3.2866    0.8440    0.0000 C   0  0  0  0  0  0  0  0  0  0  0  0
    1.7878    0.7835    0.0000 S   0  0  0  0  0  0  0  0  0  0  0  0
   -2.5856   -0.7438    0.0000 C   0  0  0  0  0  0  0  0  0  0  0  0
   -3.7399    0.2142    0.0000 R   0  0  0  0  0  1  0  0  0  0  0  0
   -2.8382   -2.2224    0.0000 O   0  0  0  0  0  0  0  0  0  0  0  0
  1  2  1  0
  2  3  1  0
  2  4  1  0
  4  5  1  1
  5  6  1  0
  6  7  2  0
  7  8  1  0
  8  9  2  0
  9 10  1  0
  4 11  1  0
 11 12  1  0
 11 13  2  0
 10  6  1  0
M  ISO  3   1   1   3   3  12   2
M  END
>  <symbol>  (972) 
Thi2Ala

>  <m_abbr>  (972) 
Thi2Ala

>  <m_name>  (972) 
L-2-thienylalanine

>  <m_type>  (972) 
aa

>  <m_subtype>  (972) 
modified

>  <m_Rgroups>  (972) 
[H],[OH],[H]

>  <m_chem_types>  (972) 
1:backbone_n,2:backbone_c,3:backbone_n_mod

>  <m_activation_policy>  (972) 
canonical-sites-v1

$$$$

     RDKit          2D

 13 13  0  0  0  0  0  0  0  0999 V2000
   -2.0806    2.2134    0.0000 R   0  0  0  0  0  1  0  0  0  0  0  0
   -0.9264    1.2554    0.0000 N   0  0  0  0  0  0  0  0  0  0  0  0
    0.4804    1.7760    0.0000 R   0  0  0  0  0  1  0  0  0  0  0  0
   -1.1789   -0.2232    0.0000 C   0  0  0  0  0  0  0  0  0  0  0  0
   -0.0246   -1.1812    0.0000 C   0  0  0  0  0  0  0  0  0  0  0  0
    1.3821   -0.6606    0.0000 C   0  0  0  0  0  0  0  0  0  0  0  0
    2.6302   -1.4926    0.0000 C   0  0  0  0  0  0  0  0  0  0  0  0
    3.8072   -0.5628    0.0000 C   0  0  0  0  0  0  0  0  0  0  0  0
    3.2866    0.8440    0.0000 C   0  0  0  0  0  0  0  0  0  0  0  0
    1.7878    0.7835    0.0000 S   0  0  0  0  0  0  0  0  0  0  0  0
   -2.5856   -0.7438    0.0000 C   0  0  0  0  0  0  0  0  0  0  0  0
   -3.7399    0.2142    0.0000 R   0  0  0  0  0  1  0  0  0  0  0  0
   -2.8382   -2.2224    0.0000 O   0  0  0  0  0  0  0  0  0  0  0  0
  1  2  1  0
  2  3  1  0
  2  4  1  0
  4  5  1  6
  5  6  1  0
  6  7  2  0
  7  8  1  0
  8  9  2  0
  9 10  1  0
  4 11  1  0
 11 12  1  0
 11 13  2  0
 10  6  1  0
M  ISO  3   1   1   3   3  12   2
M  END
>  <symbol>  (973) 
D_Thi2Ala

>  <m_abbr>  (973) 
D_Thi2Ala

>  <m_name>  (973) 
D-2-thienylalanine

>  <m_type>  (973) 
aa

>  <m_subtype>  (973) 
modified

>  <m_Rgroups>  (973) 
[H],[OH],[H]

>  <m_chem_types>  (973) 
1:backbone_n,2:backbone_c,3:backbone_n_mod

>  <m_activation_policy>  (973) 
canonical-sites-v1

$$$$

     RDKit          2D

 10  9  0  0  0  0  0  0  0  0999 V2000
   -4.4693    0.9153    0.0000 R   0  0  0  0  0  1  0  0  0  0  0  0
   -3.2691    0.0155    0.0000 N   0  0  0  0  0  0  0  0  0  0  0  0
   -3.4483   -1.4737    0.0000 R   0  0  0  0  0  1  0  0  0  0  0  0
   -1.8898    0.6050    0.0000 C   0  0  0  0  0  0  0  0  0  0  0  0
   -0.6897   -0.2947    0.0000 C   0  0  0  0  0  0  0  0  0  0  0  0
    0.6897    0.2947    0.0000 C   0  0  0  0  0  0  0  0  0  0  0  0
    1.8898   -0.6050    0.0000 C   0  0  0  0  0  0  0  0  0  0  0  0
    3.2691   -0.0155    0.0000 C   0  0  0  0  0  0  0  0  0  0  0  0
    4.4693   -0.9153    0.0000 R   0  0  0  0  0  1  0  0  0  0  0  0
    3.4483    1.4737    0.0000 O   0  0  0  0  0  0  0  0  0  0  0  0
  1  2  1  0
  2  3  1  0
  2  4  1  0
  4  5  1  0
  5  6  1  0
  6  7  1  0
  7  8  1  0
  8  9  1  0
  8 10  2  0
M  ISO  3   1   1   3   3   9   2
M  END
>  <symbol>  (974) 
Ahx

>  <m_abbr>  (974) 
Ahx

>  <m_name>  (974) 
6-aminohexanoic acid (Ahx) linker

>  <m_type>  (974) 
linker

>  <m_subtype>  (974) 
linker

>  <m_Rgroups>  (974) 
[H],[OH],[H]

>  <m_chem_types>  (974) 
1:backbone_n,2:backbone_c,3:backbone_n_mod

>  <m_activation_policy>  (974) 
canonical-sites-v1

$$$$

     RDKit          2D

 18 19  0  0  0  0  0  0  0  0999 V2000
   -3.9967   -1.5786    0.0000 R   0  0  0  0  0  1  0  0  0  0  0  0
   -2.5756   -1.0986    0.0000 N   0  0  0  0  0  0  0  0  0  0  0  0
   -1.4493   -2.0892    0.0000 R   0  0  0  0  0  1  0  0  0  0  0  0
   -2.2807    0.3722    0.0000 C   0  0  0  0  0  0  0  0  0  0  0  0
   -0.8596    0.8522    0.0000 C   0  0  0  0  0  0  0  0  0  0  0  0
    0.2667   -0.1384    0.0000 C   0  0  0  0  0  0  0  0  0  0  0  0
   -0.0281   -1.6092    0.0000 C   0  0  0  0  0  0  0  0  0  0  0  0
    1.0981   -2.5999    0.0000 C   0  0  0  0  0  0  0  0  0  0  0  0
    2.5193   -2.1198    0.0000 N   0  0  0  0  0  0  0  0  0  0  0  0
    2.8141   -0.6491    0.0000 C   0  0  0  0  0  0  0  0  0  0  0  0
    4.2352   -0.1690    0.0000 C   0  0  0  0  0  0  0  0  0  0  0  0
    4.5300    1.3017    0.0000 C   0  0  0  0  0  0  0  0  0  0  0  0
    3.4037    2.2924    0.0000 C   0  0  0  0  0  0  0  0  0  0  0  0
    1.9826    1.8124    0.0000 C   0  0  0  0  0  0  0  0  0  0  0  0
    1.6878    0.3416    0.0000 C   0  0  0  0  0  0  0  0  0  0  0  0
   -3.4070    1.3629    0.0000 C   0  0  0  0  0  0  0  0  0  0  0  0
   -4.8281    0.8828    0.0000 R   0  0  0  0  0  1  0  0  0  0  0  0
   -3.1122    2.8336    0.0000 O   0  0  0  0  0  0  0  0  0  0  0  0
  1  2  1  0
  2  3  1  0
  2  4  1  0
  4  5  1  6
  5  6  1  0
  6  7  2  0
  7  8  1  0
  8  9  2  0
  9 10  1  0
 10 11  2  0
 11 12  1  0
 12 13  2  0
 13 14  1  0
 14 15  2  0
  4 16  1  0
 16 17  1  0
 16 18  2  0
 15  6  1  0
 15 10  1  0
M  ISO  3   1   1   3   3  17   2
M  END
>  <symbol>  (975) 
IsoQui3Ala

>  <m_abbr>  (975) 
IsoQui3Ala

>  <m_name>  (975) 
L-isoquinolin-3-yl-alanine

>  <m_type>  (975) 
aa

>  <m_subtype>  (975) 
modified

>  <m_Rgroups>  (975) 
[H],[OH],[H]

>  <m_chem_types>  (975) 
1:backbone_n,2:backbone_c,3:backbone_n_mod

>  <m_activation_policy>  (975) 
canonical-sites-v1

$$$$

     RDKit          2D

 18 19  0  0  0  0  0  0  0  0999 V2000
   -3.9967   -1.5786    0.0000 R   0  0  0  0  0  1  0  0  0  0  0  0
   -2.5756   -1.0986    0.0000 N   0  0  0  0  0  0  0  0  0  0  0  0
   -1.4493   -2.0892    0.0000 R   0  0  0  0  0  1  0  0  0  0  0  0
   -2.2807    0.3722    0.0000 C   0  0  0  0  0  0  0  0  0  0  0  0
   -0.8596    0.8522    0.0000 C   0  0  0  0  0  0  0  0  0  0  0  0
    0.2667   -0.1384    0.0000 C   0  0  0  0  0  0  0  0  0  0  0  0
   -0.0281   -1.6092    0.0000 C   0  0  0  0  0  0  0  0  0  0  0  0
    1.0981   -2.5999    0.0000 C   0  0  0  0  0  0  0  0  0  0  0  0
    2.5193   -2.1198    0.0000 N   0  0  0  0  0  0  0  0  0  0  0  0
    2.8141   -0.6491    0.0000 C   0  0  0  0  0  0  0  0  0  0  0  0
    4.2352   -0.1690    0.0000 C   0  0  0  0  0  0  0  0  0  0  0  0
    4.5300    1.3017    0.0000 C   0  0  0  0  0  0  0  0  0  0  0  0
    3.4037    2.2924    0.0000 C   0  0  0  0  0  0  0  0  0  0  0  0
    1.9826    1.8124    0.0000 C   0  0  0  0  0  0  0  0  0  0  0  0
    1.6878    0.3416    0.0000 C   0  0  0  0  0  0  0  0  0  0  0  0
   -3.4070    1.3629    0.0000 C   0  0  0  0  0  0  0  0  0  0  0  0
   -4.8281    0.8828    0.0000 R   0  0  0  0  0  1  0  0  0  0  0  0
   -3.1122    2.8336    0.0000 O   0  0  0  0  0  0  0  0  0  0  0  0
  1  2  1  0
  2  3  1  0
  2  4  1  0
  4  5  1  1
  5  6  1  0
  6  7  2  0
  7  8  1  0
  8  9  2  0
  9 10  1  0
 10 11  2  0
 11 12  1  0
 12 13  2  0
 13 14  1  0
 14 15  2  0
  4 16  1  0
 16 17  1  0
 16 18  2  0
 15  6  1  0
 15 10  1  0
M  ISO  3   1   1   3   3  17   2
M  END
>  <symbol>  (976) 
D_IsoQui3Ala

>  <m_abbr>  (976) 
D_IsoQui3Ala

>  <m_name>  (976) 
D-isoquinolin-3-yl-alanine

>  <m_type>  (976) 
aa

>  <m_subtype>  (976) 
modified

>  <m_Rgroups>  (976) 
[H],[OH],[H]

>  <m_chem_types>  (976) 
1:backbone_n,2:backbone_c,3:backbone_n_mod

>  <m_activation_policy>  (976) 
canonical-sites-v1

$$$$

     RDKit          2D

 18 19  0  0  0  0  0  0  0  0999 V2000
   -2.8410    2.4745    0.0000 R   0  0  0  0  0  1  0  0  0  0  0  0
   -1.9666    1.2557    0.0000 N   0  0  0  0  0  0  0  0  0  0  0  0
   -0.4739    1.4035    0.0000 R   0  0  0  0  0  1  0  0  0  0  0  0
   -2.5850   -0.1109    0.0000 C   0  0  0  0  0  0  0  0  0  0  0  0
   -1.7106   -1.3297    0.0000 C   0  0  0  0  0  0  0  0  0  0  0  0
   -0.2179   -1.1819    0.0000 C   0  0  0  0  0  0  0  0  0  0  0  0
    0.6564   -2.4007    0.0000 C   0  0  0  0  0  0  0  0  0  0  0  0
    2.1491   -2.2530    0.0000 C   0  0  0  0  0  0  0  0  0  0  0  0
    2.7675   -0.8863    0.0000 C   0  0  0  0  0  0  0  0  0  0  0  0
    4.2602   -0.7385    0.0000 N   0  0  0  0  0  0  0  0  0  0  0  0
    4.8785    0.6281    0.0000 C   0  0  0  0  0  0  0  0  0  0  0  0
    4.0042    1.8469    0.0000 C   0  0  0  0  0  0  0  0  0  0  0  0
    2.5115    1.6991    0.0000 C   0  0  0  0  0  0  0  0  0  0  0  0
    1.8931    0.3325    0.0000 C   0  0  0  0  0  0  0  0  0  0  0  0
    0.4004    0.1847    0.0000 C   0  0  0  0  0  0  0  0  0  0  0  0
   -4.0777   -0.2587    0.0000 C   0  0  0  0  0  0  0  0  0  0  0  0
   -4.9520    0.9601    0.0000 R   0  0  0  0  0  1  0  0  0  0  0  0
   -4.6960   -1.6253    0.0000 O   0  0  0  0  0  0  0  0  0  0  0  0
  1  2  1  0
  2  3  1  0
  2  4  1  0
  4  5  1  1
  5  6  1  0
  6  7  1  0
  7  8  2  0
  8  9  1  0
  9 10  2  0
 10 11  1  0
 11 12  2  0
 12 13  1  0
 13 14  2  0
 14 15  1  0
  4 16  1  0
 16 17  1  0
 16 18  2  0
 15  6  2  0
 14  9  1  0
M  ISO  3   1   1   3   3  17   2
M  END
>  <symbol>  (977) 
Qui6Ala

>  <m_abbr>  (977) 
Qui6Ala

>  <m_name>  (977) 
L-quinolin-6-yl-alanine

>  <m_type>  (977) 
aa

>  <m_subtype>  (977) 
modified

>  <m_Rgroups>  (977) 
[H],[OH],[H]

>  <m_chem_types>  (977) 
1:backbone_n,2:backbone_c,3:backbone_n_mod

>  <m_activation_policy>  (977) 
canonical-sites-v1

$$$$

     RDKit          2D

 12 12  0  0  0  0  0  0  0  0999 V2000
    3.7500   -1.2990    0.0000 R   0  0  0  0  0  1  0  0  0  0  0  0
    3.0000   -0.0000    0.0000 C   0  0  0  0  0  0  0  0  0  0  0  0
    1.5000   -0.0000    0.0000 C   0  0  0  0  0  0  0  0  0  0  0  0
    0.7500   -1.2990    0.0000 C   0  0  0  0  0  0  0  0  0  0  0  0
   -0.7500   -1.2990    0.0000 C   0  0  0  0  0  0  0  0  0  0  0  0
   -1.5000   -2.5981    0.0000 C   0  0  0  0  0  0  0  0  0  0  0  0
   -3.0000   -2.5981    0.0000 R   0  0  0  0  0  1  0  0  0  0  0  0
   -1.5000   -0.0000    0.0000 C   0  0  0  0  0  0  0  0  0  0  0  0
   -0.7500    1.2990    0.0000 C   0  0  0  0  0  0  0  0  0  0  0  0
   -1.5000    2.5981    0.0000 C   0  0  0  0  0  0  0  0  0  0  0  0
   -0.7500    3.8971    0.0000 R   0  0  0  0  0  1  0  0  0  0  0  0
    0.7500    1.2990    0.0000 C   0  0  0  0  0  0  0  0  0  0  0  0
  1  2  1  0
  2  3  1  0
  3  4  2  0
  4  5  1  0
  5  6  1  0
  6  7  1  0
  5  8  2  0
  8  9  1  0
  9 10  1  0
 10 11  1  0
  9 12  2  0
 12  3  1  0
M  ISO  3   1   4   7   5  11   6
M  END
>  <symbol>  (978) 
TBMB

>  <m_abbr>  (978) 
TBMB

>  <m_name>  (978) 
1,3,5-Tris(bromomethyl)benzene

>  <m_type>  (978) 
linker

>  <m_subtype>  (978) 
crosslink

>  <m_Rgroups>  (978) 
None,None,None,[Br],[Br],[Br]

>  <m_chem_types>  (978) 
4:alkyl_halide_c,5:alkyl_halide_c,6:alkyl_halide_c

>  <m_activation_policy>  (978) 
canonical-sites-v1

$$$$

     RDKit          2D

  9  8  0  0  0  0  0  0  0  0999 V2000
   -2.2500    1.0104    0.0000 R   0  0  0  0  0  1  0  0  0  0  0  0
   -1.5000   -0.2887    0.0000 N   0  0  0  0  0  0  0  0  0  0  0  0
   -2.2500   -1.5877    0.0000 R   0  0  0  0  0  1  0  0  0  0  0  0
   -0.0000   -0.2887    0.0000 C   0  0  0  0  0  0  0  0  0  0  0  0
    0.7500   -1.5877    0.0000 C   0  0  0  0  0  0  0  0  0  0  0  0
    2.2500   -1.5877    0.0000 R   0  0  0  0  0  1  0  0  0  0  0  0
    0.7500    1.0104    0.0000 C   0  0  0  0  0  0  0  0  0  0  0  0
    2.2500    1.0104    0.0000 R   0  0  0  0  0  1  0  0  0  0  0  0
   -0.0000    2.3094    0.0000 O   0  0  0  0  0  0  0  0  0  0  0  0
  1  2  1  0
  2  3  1  0
  2  4  1  0
  4  5  1  6
  5  6  1  0
  4  7  1  0
  7  8  1  0
  7  9  2  0
M  ISO  4   1   1   3   3   6   4   8   2
M  END
>  <symbol>  (979) 
ClAcAla

>  <m_abbr>  (979) 
ClAcAla

>  <m_name>  (979) 
Chloroalanine

>  <m_type>  (979) 
aa

>  <m_subtype>  (979) 
modified

>  <m_Rgroups>  (979) 
[H],[OH],[H],[Cl]

>  <m_chem_types>  (979) 
1:backbone_n,2:backbone_c,3:backbone_n_mod,4:alkyl_halide_c

>  <m_activation_policy>  (979) 
canonical-sites-v1

$$$$

     RDKit          2D

 19 19  0  0  0  0  0  0  0  0999 V2000
    2.3959    2.6978    0.0000 R   0  0  0  0  0  1  0  0  0  0  0  0
    1.6257    1.4106    0.0000 N   0  0  0  0  0  0  0  0  0  0  0  0
    0.1259    1.4340    0.0000 R   0  0  0  0  0  1  0  0  0  0  0  0
    2.3553    0.1000    0.0000 C   0  0  0  0  0  0  0  0  0  0  0  0
    3.8551    0.0766    0.0000 C   0  0  0  0  0  0  0  0  0  0  0  0
    4.6253    1.3638    0.0000 R   0  0  0  0  0  1  0  0  0  0  0  0
    4.5848   -1.2340    0.0000 O   0  0  0  0  0  0  0  0  0  0  0  0
    1.5852   -1.1872    0.0000 C   0  0  0  0  0  0  0  0  0  0  0  0
    2.3148   -2.4978    0.0000 R   0  0  0  0  0  1  0  0  0  0  0  0
    0.0853   -1.1638    0.0000 C   0  0  0  0  0  0  0  0  0  0  0  0
   -0.6848   -2.4509    0.0000 O   0  0  0  0  0  0  0  0  0  0  0  0
   -0.6443    0.1468    0.0000 O   0  0  0  0  0  0  0  0  0  0  0  0
   -2.1441    0.1702    0.0000 N   0  0  0  0  0  0  0  0  0  0  0  0
   -3.0068    1.3974    0.0000 C   0  0  0  0  0  0  0  0  0  0  0  0
   -2.5210    2.8165    0.0000 O   0  0  0  0  0  0  0  0  0  0  0  0
   -4.4404    0.9561    0.0000 C   0  0  0  0  0  0  0  0  0  0  0  0
   -4.4638   -0.5437    0.0000 C   0  0  0  0  0  0  0  0  0  0  0  0
   -3.0446   -1.0294    0.0000 C   0  0  0  0  0  0  0  0  0  0  0  0
   -2.6034   -2.4630    0.0000 O   0  0  0  0  0  0  0  0  0  0  0  0
  1  2  1  0
  2  3  1  0
  2  4  1  0
  4  5  1  0
  5  6  1  0
  5  7  2  0
  4  8  1  6
  8  9  1  0
  8 10  1  0
 10 11  2  0
 10 12  1  0
 12 13  1  0
 13 14  1  0
 14 15  2  0
 14 16  1  0
 16 17  1  0
 17 18  1  0
 18 19  2  0
 18 13  1  0
M  ISO  4   1   1   3   3   6   2   9   4
M  END
>  <symbol>  (980) 
NHSAla

>  <m_abbr>  (980) 
NHSAla

>  <m_name>  (980) 
NHS-ester alanine

>  <m_type>  (980) 
aa

>  <m_subtype>  (980) 
modified

>  <m_Rgroups>  (980) 
[H],[OH],[H],[H]

>  <m_chem_types>  (980) 
1:backbone_n,2:backbone_c,3:backbone_n_mod,4:nhs_ester

>  <m_activation_policy>  (980) 
canonical-sites-v1

$$$$

     RDKit          2D

 13 12  0  0  0  0  0  0  0  0999 V2000
   -3.6603   -0.5247    0.0000 R   0  0  0  0  0  1  0  0  0  0  0  0
   -2.2769   -1.1044    0.0000 N   0  0  0  0  0  0  0  0  0  0  0  0
   -2.0872   -2.5924    0.0000 R   0  0  0  0  0  1  0  0  0  0  0  0
   -1.0831   -0.1962    0.0000 C   0  0  0  0  0  0  0  0  0  0  0  0
    0.3004   -0.7759    0.0000 C   0  0  0  0  0  0  0  0  0  0  0  0
    1.4942    0.1323    0.0000 C   0  0  0  0  0  0  0  0  0  0  0  0
    1.3045    1.6202    0.0000 O   0  0  0  0  0  0  0  0  0  0  0  0
    2.8776   -0.4475    0.0000 N   0  0  0  0  0  0  0  0  0  0  0  0
    4.0714    0.4608    0.0000 R   0  0  0  0  0  1  0  0  0  0  0  0
    3.0672   -1.9354    0.0000 N   0  0  0  0  0  0  0  0  0  0  0  0
   -1.2727    1.2918    0.0000 C   0  0  0  0  0  0  0  0  0  0  0  0
   -0.0789    2.2000    0.0000 R   0  0  0  0  0  1  0  0  0  0  0  0
   -2.6562    1.8715    0.0000 O   0  0  0  0  0  0  0  0  0  0  0  0
  1  2  1  0
  2  3  1  0
  2  4  1  0
  4  5  1  6
  5  6  1  0
  6  7  2  0
  6  8  1  0
  8  9  1  0
  8 10  1  0
  4 11  1  0
 11 12  1  0
 11 13  2  0
M  ISO  4   1   1   3   3   9   4  12   2
M  END
>  <symbol>  (981) 
HzAla

>  <m_abbr>  (981) 
HzAla

>  <m_name>  (981) 
Hydrazide-alanine

>  <m_type>  (981) 
aa

>  <m_subtype>  (981) 
modified

>  <m_Rgroups>  (981) 
[H],[OH],[H],[H]

>  <m_chem_types>  (981) 
1:backbone_n,2:backbone_c,3:backbone_n_mod,4:hydrazide

>  <m_activation_policy>  (981) 
canonical-sites-v1

$$$$

     RDKit          2D

 11 10  0  0  0  0  0  0  0  0999 V2000
   -3.3018   -0.2248    0.0000 R   0  0  0  0  0  1  0  0  0  0  0  0
   -1.9832   -0.9398    0.0000 N   0  0  0  0  0  0  0  0  0  0  0  0
   -1.9430   -2.4392    0.0000 R   0  0  0  0  0  1  0  0  0  0  0  0
   -0.7047   -0.1553    0.0000 C   0  0  0  0  0  0  0  0  0  0  0  0
    0.6140   -0.8702    0.0000 C   0  0  0  0  0  0  0  0  0  0  0  0
    1.8925   -0.0858    0.0000 C   0  0  0  0  0  0  0  0  0  0  0  0
    3.2111   -0.8007    0.0000 O   0  0  0  0  0  0  0  0  0  0  0  0
    4.4896   -0.0162    0.0000 R   0  0  0  0  0  1  0  0  0  0  0  0
   -0.7448    1.3442    0.0000 C   0  0  0  0  0  0  0  0  0  0  0  0
    0.5337    2.1287    0.0000 R   0  0  0  0  0  1  0  0  0  0  0  0
   -2.0634    2.0592    0.0000 O   0  0  0  0  0  0  0  0  0  0  0  0
  1  2  1  0
  2  3  1  0
  2  4  1  0
  4  5  1  6
  5  6  1  0
  6  7  1  0
  7  8  1  0
  4  9  1  0
  9 10  1  0
  9 11  2  0
M  ISO  4   1   1   3   3   8   4  10   2
M  END
>  <symbol>  (982) 
Hser

>  <m_abbr>  (982) 
Hser

>  <m_name>  (982) 
Homoserine

>  <m_type>  (982) 
aa

>  <m_subtype>  (982) 
modified

>  <m_Rgroups>  (982) 
[H],[OH],[H],[H]

>  <m_chem_types>  (982) 
1:backbone_n,2:backbone_c,3:backbone_n_mod,4:hydroxyl

>  <m_activation_policy>  (982) 
canonical-sites-v1

$$$$

     RDKit          2D

 11 10  0  0  0  0  0  0  0  0999 V2000
   -3.3018   -0.2248    0.0000 R   0  0  0  0  0  1  0  0  0  0  0  0
   -1.9832   -0.9398    0.0000 N   0  0  0  0  0  0  0  0  0  0  0  0
   -1.9430   -2.4392    0.0000 R   0  0  0  0  0  1  0  0  0  0  0  0
   -0.7047   -0.1553    0.0000 C   0  0  0  0  0  0  0  0  0  0  0  0
    0.6140   -0.8702    0.0000 C   0  0  0  0  0  0  0  0  0  0  0  0
    1.8925   -0.0858    0.0000 C   0  0  0  0  0  0  0  0  0  0  0  0
    3.2111   -0.8007    0.0000 Se  0  0  0  0  0  2  0  0  0  0  0  0
    4.4896   -0.0162    0.0000 R   0  0  0  0  0  1  0  0  0  0  0  0
   -0.7448    1.3442    0.0000 C   0  0  0  0  0  0  0  0  0  0  0  0
    0.5337    2.1287    0.0000 R   0  0  0  0  0  1  0  0  0  0  0  0
   -2.0634    2.0592    0.0000 O   0  0  0  0  0  0  0  0  0  0  0  0
  1  2  1  0
  2  3  1  0
  2  4  1  0
  4  5  1  6
  5  6  1  0
  6  7  1  0
  7  8  1  0
  4  9  1  0
  9 10  1  0
  9 11  2  0
M  ISO  4   1   1   3   3   8   4  10   2
M  END
>  <symbol>  (983) 
Se_Hcy

>  <m_abbr>  (983) 
Se_Hcy

>  <m_name>  (983) 
Se_Hcy

>  <m_type>  (983) 
aa

>  <m_subtype>  (983) 
modified

>  <m_Rgroups>  (983) 
[H],[OH],[H],[H]

>  <m_chem_types>  (983) 
1:backbone_n,2:backbone_c,3:backbone_n_mod,4:selenol

>  <m_activation_policy>  (983) 
canonical-sites-v1

$$$$

     RDKit          2D

 11 10  0  0  0  0  0  0  0  0999 V2000
   -3.3018   -0.2248    0.0000 R   0  0  0  0  0  1  0  0  0  0  0  0
   -1.9832   -0.9398    0.0000 N   0  0  0  0  0  0  0  0  0  0  0  0
   -1.9430   -2.4392    0.0000 R   0  0  0  0  0  1  0  0  0  0  0  0
   -0.7047   -0.1553    0.0000 C   0  0  0  0  0  0  0  0  0  0  0  0
    0.6140   -0.8702    0.0000 C   0  0  0  0  0  0  0  0  0  0  0  0
    1.8925   -0.0858    0.0000 C   0  0  0  0  0  0  0  0  0  0  0  0
    3.2111   -0.8007    0.0000 Se  0  0  0  0  0  2  0  0  0  0  0  0
    4.4896   -0.0162    0.0000 R   0  0  0  0  0  1  0  0  0  0  0  0
   -0.7448    1.3442    0.0000 C   0  0  0  0  0  0  0  0  0  0  0  0
    0.5337    2.1287    0.0000 R   0  0  0  0  0  1  0  0  0  0  0  0
   -2.0634    2.0592    0.0000 O   0  0  0  0  0  0  0  0  0  0  0  0
  1  2  1  0
  2  3  1  0
  2  4  1  0
  4  5  1  1
  5  6  1  0
  6  7  1  0
  7  8  1  0
  4  9  1  0
  9 10  1  0
  9 11  2  0
M  ISO  4   1   1   3   3   8   4  10   2
M  END
>  <symbol>  (984) 
D_Se_Hcy

>  <m_abbr>  (984) 
D_Se_Hcy

>  <m_name>  (984) 
D_Se_Hcy

>  <m_type>  (984) 
aa

>  <m_subtype>  (984) 
modified

>  <m_Rgroups>  (984) 
[H],[OH],[H],[H]

>  <m_chem_types>  (984) 
1:backbone_n,2:backbone_c,3:backbone_n_mod,4:selenol

>  <m_activation_policy>  (984) 
canonical-sites-v1

$$$$

     RDKit          2D

 11 10  0  0  0  0  0  0  0  0999 V2000
   -2.0892    1.3257    0.0000 R   0  0  0  0  0  1  0  0  0  0  0  0
   -1.7537   -0.1363    0.0000 N   0  0  0  0  0  0  0  0  0  0  0  0
   -2.8521   -1.1579    0.0000 R   0  0  0  0  0  1  0  0  0  0  0  0
   -0.3198   -0.5768    0.0000 C   0  0  0  0  0  0  0  0  0  0  0  0
   -0.7603   -2.0107    0.0000 C   0  0  0  0  0  0  0  0  0  0  0  0
    1.1140   -1.0172    0.0000 C   0  0  0  0  0  0  0  0  0  0  0  0
    2.2124    0.0043    0.0000 Se  0  0  0  0  0  2  0  0  0  0  0  0
    3.6463   -0.4362    0.0000 R   0  0  0  0  0  1  0  0  0  0  0  0
    0.1206    0.8571    0.0000 C   0  0  0  0  0  0  0  0  0  0  0  0
    1.5826    1.1926    0.0000 R   0  0  0  0  0  1  0  0  0  0  0  0
   -0.9009    1.9555    0.0000 O   0  0  0  0  0  0  0  0  0  0  0  0
  1  2  1  0
  2  3  1  0
  2  4  1  0
  4  5  1  0
  4  6  1  0
  6  7  1  0
  7  8  1  0
  4  9  1  0
  9 10  1  0
  9 11  2  0
M  ISO  4   1   1   3   3   8   4  10   2
M  END
>  <symbol>  (985) 
Se_Pen

>  <m_abbr>  (985) 
Se_Pen

>  <m_name>  (985) 
Se_Pen

>  <m_type>  (985) 
aa

>  <m_subtype>  (985) 
modified

>  <m_Rgroups>  (985) 
[H],[OH],[H],[H]

>  <m_chem_types>  (985) 
1:backbone_n,2:backbone_c,3:backbone_n_mod,4:selenol

>  <m_activation_policy>  (985) 
canonical-sites-v1

$$$$

     RDKit          2D

 18 18  0  0  0  0  0  0  0  0999 V2000
   -4.0358    2.1816    0.0000 R   0  0  0  0  0  1  0  0  0  0  0  0
   -2.8135    1.3120    0.0000 N   0  0  0  0  0  0  0  0  0  0  0  0
   -1.4493    1.9357    0.0000 R   0  0  0  0  0  1  0  0  0  0  0  0
   -2.9555   -0.1813    0.0000 C   0  0  0  0  0  0  0  0  0  0  0  0
   -1.7332   -1.0508    0.0000 C   0  0  0  0  0  0  0  0  0  0  0  0
   -0.3690   -0.4271    0.0000 C   0  0  0  0  0  0  0  0  0  0  0  0
    0.8532   -1.2967    0.0000 C   0  0  0  0  0  0  0  0  0  0  0  0
    2.2174   -0.6730    0.0000 N   0  0  0  0  0  0  0  0  0  0  0  0
    3.5238   -1.4100    0.0000 C   0  0  0  0  0  0  0  0  0  0  0  0
    3.6954   -2.9001    0.0000 O   0  0  0  0  0  0  0  0  0  0  0  0
    4.6285   -0.3953    0.0000 C   0  0  0  0  0  0  0  0  0  0  0  0
    4.0048    0.9689    0.0000 C   0  0  0  0  0  0  0  0  0  0  0  0
    4.7418    2.2754    0.0000 R   0  0  0  0  0  1  0  0  0  0  0  0
    2.5146    0.7973    0.0000 C   0  0  0  0  0  0  0  0  0  0  0  0
    1.4999    1.9020    0.0000 O   0  0  0  0  0  0  0  0  0  0  0  0
   -4.3196   -0.8050    0.0000 C   0  0  0  0  0  0  0  0  0  0  0  0
   -5.5419    0.0646    0.0000 R   0  0  0  0  0  1  0  0  0  0  0  0
   -4.4616   -2.2982    0.0000 O   0  0  0  0  0  0  0  0  0  0  0  0
  1  2  1  0
  2  3  1  0
  2  4  1  0
  4  5  1  1
  5  6  1  0
  6  7  1  0
  7  8  1  0
  8  9  1  0
  9 10  2  0
  9 11  1  0
 11 12  2  0
 12 13  1  0
 12 14  1  0
 14 15  2  0
  4 16  1  0
 16 17  1  0
 16 18  2  0
 14  8  1  0
M  ISO  4   1   1   3   3  13   4  17   2
M  END
>  <symbol>  (986) 
MalOrn

>  <m_abbr>  (986) 
MalOrn

>  <m_name>  (986) 
MalOrn

>  <m_type>  (986) 
aa

>  <m_subtype>  (986) 
modified

>  <m_Rgroups>  (986) 
[H],[OH],[H],[H]

>  <m_chem_types>  (986) 
1:backbone_n,2:backbone_c,3:backbone_n_mod,4:maleimide_c

>  <m_activation_policy>  (986) 
canonical-sites-v1

$$$$

     RDKit          2D

 17 17  0  0  0  0  0  0  0  0999 V2000
   -4.2923   -1.5660    0.0000 R   0  0  0  0  0  1  0  0  0  0  0  0
   -2.8206   -1.2763    0.0000 N   0  0  0  0  0  0  0  0  0  0  0  0
   -1.8337   -2.4059    0.0000 R   0  0  0  0  0  1  0  0  0  0  0  0
   -2.3357    0.1432    0.0000 C   0  0  0  0  0  0  0  0  0  0  0  0
   -0.8639    0.4330    0.0000 C   0  0  0  0  0  0  0  0  0  0  0  0
    0.1229   -0.6967    0.0000 C   0  0  0  0  0  0  0  0  0  0  0  0
    1.5947   -0.4069    0.0000 N   0  0  0  0  0  0  0  0  0  0  0  0
    2.6942   -1.4272    0.0000 C   0  0  0  0  0  0  0  0  0  0  0  0
    2.5150   -2.9165    0.0000 O   0  0  0  0  0  0  0  0  0  0  0  0
    4.0043   -0.6968    0.0000 C   0  0  0  0  0  0  0  0  0  0  0  0
    3.7145    0.7749    0.0000 C   0  0  0  0  0  0  0  0  0  0  0  0
    4.7349    1.8744    0.0000 R   0  0  0  0  0  1  0  0  0  0  0  0
    2.2253    0.9541    0.0000 C   0  0  0  0  0  0  0  0  0  0  0  0
    1.4949    2.2643    0.0000 O   0  0  0  0  0  0  0  0  0  0  0  0
   -3.3225    1.2729    0.0000 C   0  0  0  0  0  0  0  0  0  0  0  0
   -4.7942    0.9831    0.0000 R   0  0  0  0  0  1  0  0  0  0  0  0
   -2.8376    2.6923    0.0000 O   0  0  0  0  0  0  0  0  0  0  0  0
  1  2  1  0
  2  3  1  0
  2  4  1  0
  4  5  1  6
  5  6  1  0
  6  7  1  0
  7  8  1  0
  8  9  2  0
  8 10  1  0
 10 11  2  0
 11 12  1  0
 11 13  1  0
 13 14  2  0
  4 15  1  0
 15 16  1  0
 15 17  2  0
 13  7  1  0
M  ISO  4   1   1   3   3  12   4  16   2
M  END
>  <symbol>  (987) 
MalDab

>  <m_abbr>  (987) 
MalDab

>  <m_name>  (987) 
MalDab

>  <m_type>  (987) 
aa

>  <m_subtype>  (987) 
modified

>  <m_Rgroups>  (987) 
[H],[OH],[H],[H]

>  <m_chem_types>  (987) 
1:backbone_n,2:backbone_c,3:backbone_n_mod,4:maleimide_c

>  <m_activation_policy>  (987) 
canonical-sites-v1

$$$$

     RDKit          2D

 18 18  0  0  0  0  0  0  0  0999 V2000
    5.0081   -1.7106    0.0000 R   0  0  0  0  0  1  0  0  0  0  0  0
    3.5953   -1.2065    0.0000 N   0  0  0  0  0  0  0  0  0  0  0  0
    2.4523   -2.1778    0.0000 R   0  0  0  0  0  1  0  0  0  0  0  0
    3.3256    0.2691    0.0000 C   0  0  0  0  0  0  0  0  0  0  0  0
    1.9129    0.7733    0.0000 C   0  0  0  0  0  0  0  0  0  0  0  0
    0.7699   -0.1981    0.0000 C   0  0  0  0  0  0  0  0  0  0  0  0
   -0.6429    0.3061    0.0000 C   0  0  0  0  0  0  0  0  0  0  0  0
   -1.7859   -0.6653    0.0000 C   0  0  0  0  0  0  0  0  0  0  0  0
   -1.5161   -2.1409    0.0000 R   0  0  0  0  0  1  0  0  0  0  0  0
   -3.1986   -0.1612    0.0000 C   0  0  0  0  0  0  0  0  0  0  0  0
   -4.3416   -1.1325    0.0000 N   0  0  0  0  0  0  0  0  0  0  0  0
   -5.7543   -0.6284    0.0000 N   0  0  0  0  0  0  0  0  0  0  0  0
   -6.0241    0.8472    0.0000 C   0  0  0  0  0  0  0  0  0  0  0  0
   -4.8811    1.8186    0.0000 N   0  0  0  0  0  0  0  0  0  0  0  0
   -3.4683    1.3144    0.0000 N   0  0  0  0  0  0  0  0  0  0  0  0
    4.4686    1.2405    0.0000 C   0  0  0  0  0  0  0  0  0  0  0  0
    5.8813    0.7363    0.0000 R   0  0  0  0  0  1  0  0  0  0  0  0
    4.1988    2.7160    0.0000 O   0  0  0  0  0  0  0  0  0  0  0  0
  1  2  1  0
  2  3  1  0
  2  4  1  0
  4  5  1  1
  5  6  1  0
  6  7  1  0
  7  8  1  0
  8  9  1  0
  8 10  1  0
 10 11  2  0
 11 12  1  0
 12 13  2  0
 13 14  1  0
 14 15  2  0
  4 16  1  0
 16 17  1  0
 16 18  2  0
 15 10  1  0
M  ISO  4   1   1   3   3   9   4  17   2
M  END
>  <symbol>  (988) 
TzOrn

>  <m_abbr>  (988) 
TzOrn

>  <m_name>  (988) 
TzOrn

>  <m_type>  (988) 
aa

>  <m_subtype>  (988) 
modified

>  <m_Rgroups>  (988) 
[H],[OH],[H],[H]

>  <m_chem_types>  (988) 
1:backbone_n,2:backbone_c,3:backbone_n_mod,4:tetrazine_c

>  <m_activation_policy>  (988) 
canonical-sites-v1

$$$$

     RDKit          2D

 17 17  0  0  0  0  0  0  0  0999 V2000
    3.8310    2.2871    0.0000 R   0  0  0  0  0  1  0  0  0  0  0  0
    2.5843    1.4530    0.0000 N   0  0  0  0  0  0  0  0  0  0  0  0
    1.2386    2.1157    0.0000 R   0  0  0  0  0  1  0  0  0  0  0  0
    2.6832   -0.0437    0.0000 C   0  0  0  0  0  0  0  0  0  0  0  0
    1.4365   -0.8778    0.0000 C   0  0  0  0  0  0  0  0  0  0  0  0
    0.0908   -0.2151    0.0000 C   0  0  0  0  0  0  0  0  0  0  0  0
   -1.1559   -1.0491    0.0000 C   0  0  0  0  0  0  0  0  0  0  0  0
   -1.0570   -2.5459    0.0000 R   0  0  0  0  0  1  0  0  0  0  0  0
   -2.5016   -0.3864    0.0000 C   0  0  0  0  0  0  0  0  0  0  0  0
   -3.7484   -1.2205    0.0000 N   0  0  0  0  0  0  0  0  0  0  0  0
   -5.0940   -0.5578    0.0000 N   0  0  0  0  0  0  0  0  0  0  0  0
   -5.1930    0.9389    0.0000 C   0  0  0  0  0  0  0  0  0  0  0  0
   -3.9462    1.7730    0.0000 N   0  0  0  0  0  0  0  0  0  0  0  0
   -2.6006    1.1103    0.0000 N   0  0  0  0  0  0  0  0  0  0  0  0
    4.0289   -0.7064    0.0000 C   0  0  0  0  0  0  0  0  0  0  0  0
    5.2756    0.1277    0.0000 R   0  0  0  0  0  1  0  0  0  0  0  0
    4.1278   -2.2031    0.0000 O   0  0  0  0  0  0  0  0  0  0  0  0
  1  2  1  0
  2  3  1  0
  2  4  1  0
  4  5  1  6
  5  6  1  0
  6  7  1  0
  7  8  1  0
  7  9  1  0
  9 10  2  0
 10 11  1  0
 11 12  2  0
 12 13  1  0
 13 14  2  0
  4 15  1  0
 15 16  1  0
 15 17  2  0
 14  9  1  0
M  ISO  4   1   1   3   3   8   4  16   2
M  END
>  <symbol>  (989) 
TzDab

>  <m_abbr>  (989) 
TzDab

>  <m_name>  (989) 
TzDab

>  <m_type>  (989) 
aa

>  <m_subtype>  (989) 
modified

>  <m_Rgroups>  (989) 
[H],[OH],[H],[H]

>  <m_chem_types>  (989) 
1:backbone_n,2:backbone_c,3:backbone_n_mod,4:tetrazine_c

>  <m_activation_policy>  (989) 
canonical-sites-v1

$$$$

     RDKit          2D

 19 19  0  0  0  0  0  0  0  0999 V2000
    4.3149    2.3551    0.0000 R   0  0  0  0  0  1  0  0  0  0  0  0
    3.1042    1.4696    0.0000 N   0  0  0  0  0  0  0  0  0  0  0  0
    1.7319    2.0754    0.0000 R   0  0  0  0  0  1  0  0  0  0  0  0
    3.2657   -0.0217    0.0000 C   0  0  0  0  0  0  0  0  0  0  0  0
    2.0549   -0.9072    0.0000 C   0  0  0  0  0  0  0  0  0  0  0  0
    0.6827   -0.3014    0.0000 C   0  0  0  0  0  0  0  0  0  0  0  0
   -0.5281   -1.1869    0.0000 C   0  0  0  0  0  0  0  0  0  0  0  0
   -0.3666   -2.6782    0.0000 R   0  0  0  0  0  1  0  0  0  0  0  0
   -1.9003   -0.5811    0.0000 C   0  0  0  0  0  0  0  0  0  0  0  0
   -2.9851   -1.6170    0.0000 C   0  0  0  0  0  0  0  0  0  0  0  0
   -4.4847   -1.5825    0.0000 C   0  0  0  0  0  0  0  0  0  0  0  0
   -5.5206   -0.4977    0.0000 C   0  0  0  0  0  0  0  0  0  0  0  0
   -5.4861    1.0019    0.0000 C   0  0  0  0  0  0  0  0  0  0  0  0
   -4.4013    2.0379    0.0000 C   0  0  0  0  0  0  0  0  0  0  0  0
   -2.9017    2.0033    0.0000 C   0  0  0  0  0  0  0  0  0  0  0  0
   -1.8657    0.9185    0.0000 C   0  0  0  0  0  0  0  0  0  0  0  0
    4.6379   -0.6275    0.0000 C   0  0  0  0  0  0  0  0  0  0  0  0
    5.8486    0.2580    0.0000 R   0  0  0  0  0  1  0  0  0  0  0  0
    4.7994   -2.1187    0.0000 O   0  0  0  0  0  0  0  0  0  0  0  0
  1  2  1  0
  2  3  1  0
  2  4  1  0
  4  5  1  6
  5  6  1  0
  6  7  1  0
  7  8  1  0
  7  9  1  0
  9 10  2  3
 10 11  1  0
 11 12  1  0
 12 13  1  0
 13 14  1  0
 14 15  1  0
 15 16  1  0
  4 17  1  0
 17 18  1  0
 17 19  2  0
 16  9  1  0
M  ISO  4   1   1   3   3   8   4  18   2
M  END
>  <symbol>  (990) 
TcoOrn

>  <m_abbr>  (990) 
TcoOrn

>  <m_name>  (990) 
TcoOrn

>  <m_type>  (990) 
aa

>  <m_subtype>  (990) 
modified

>  <m_Rgroups>  (990) 
[H],[OH],[H],[H]

>  <m_chem_types>  (990) 
1:backbone_n,2:backbone_c,3:backbone_n_mod,4:tco_c

>  <m_activation_policy>  (990) 
canonical-sites-v1

$$$$

     RDKit          2D

 18 18  0  0  0  0  0  0  0  0999 V2000
    4.5406   -1.4707    0.0000 R   0  0  0  0  0  1  0  0  0  0  0  0
    3.0727   -1.1621    0.0000 N   0  0  0  0  0  0  0  0  0  0  0  0
    2.0715   -2.2791    0.0000 R   0  0  0  0  0  1  0  0  0  0  0  0
    2.6060    0.2634    0.0000 C   0  0  0  0  0  0  0  0  0  0  0  0
    1.1380    0.5720    0.0000 C   0  0  0  0  0  0  0  0  0  0  0  0
    0.1369   -0.5450    0.0000 C   0  0  0  0  0  0  0  0  0  0  0  0
    0.6036   -1.9705    0.0000 R   0  0  0  0  0  1  0  0  0  0  0  0
   -1.3311   -0.2364    0.0000 C   0  0  0  0  0  0  0  0  0  0  0  0
   -2.1779   -1.4745    0.0000 C   0  0  0  0  0  0  0  0  0  0  0  0
   -3.6522   -1.7512    0.0000 C   0  0  0  0  0  0  0  0  0  0  0  0
   -4.8903   -0.9044    0.0000 C   0  0  0  0  0  0  0  0  0  0  0  0
   -5.1669    0.5699    0.0000 C   0  0  0  0  0  0  0  0  0  0  0  0
   -4.3201    1.8080    0.0000 C   0  0  0  0  0  0  0  0  0  0  0  0
   -2.8458    2.0847    0.0000 C   0  0  0  0  0  0  0  0  0  0  0  0
   -1.6077    1.2378    0.0000 C   0  0  0  0  0  0  0  0  0  0  0  0
    3.6072    1.3804    0.0000 C   0  0  0  0  0  0  0  0  0  0  0  0
    5.0751    1.0718    0.0000 R   0  0  0  0  0  1  0  0  0  0  0  0
    3.1404    2.8059    0.0000 O   0  0  0  0  0  0  0  0  0  0  0  0
  1  2  1  0
  2  3  1  0
  2  4  1  0
  4  5  1  1
  5  6  1  0
  6  7  1  0
  6  8  1  0
  8  9  2  3
  9 10  1  0
 10 11  1  0
 11 12  1  0
 12 13  1  0
 13 14  1  0
 14 15  1  0
  4 16  1  0
 16 17  1  0
 16 18  2  0
 15  8  1  0
M  ISO  4   1   1   3   3   7   4  17   2
M  END
>  <symbol>  (991) 
TcoDab

>  <m_abbr>  (991) 
TcoDab

>  <m_name>  (991) 
TcoDab

>  <m_type>  (991) 
aa

>  <m_subtype>  (991) 
modified

>  <m_Rgroups>  (991) 
[H],[OH],[H],[H]

>  <m_chem_types>  (991) 
1:backbone_n,2:backbone_c,3:backbone_n_mod,4:tco_c

>  <m_activation_policy>  (991) 
canonical-sites-v1

$$$$

     RDKit          2D

 14 13  0  0  0  0  0  0  0  0999 V2000
   -4.8123   -0.3496    0.0000 R   0  0  0  0  0  1  0  0  0  0  0  0
   -3.4623   -1.0035    0.0000 N   0  0  0  0  0  0  0  0  0  0  0  0
   -3.3537   -2.4996    0.0000 R   0  0  0  0  0  1  0  0  0  0  0  0
   -2.2211   -0.1614    0.0000 C   0  0  0  0  0  0  0  0  0  0  0  0
   -0.8711   -0.8153    0.0000 C   0  0  0  0  0  0  0  0  0  0  0  0
    0.3702    0.0269    0.0000 C   0  0  0  0  0  0  0  0  0  0  0  0
    1.7201   -0.6270    0.0000 C   0  0  0  0  0  0  0  0  0  0  0  0
    2.9614    0.2152    0.0000 C   0  0  0  0  0  0  0  0  0  0  0  0
    4.3114   -0.4387    0.0000 O   0  0  0  0  0  0  0  0  0  0  0  0
    5.5527    0.4034    0.0000 N   0  0  0  0  0  0  0  0  0  0  0  0
    6.9026   -0.2505    0.0000 R   0  0  0  0  0  1  0  0  0  0  0  0
   -2.3298    1.3347    0.0000 C   0  0  0  0  0  0  0  0  0  0  0  0
   -1.0885    2.1768    0.0000 R   0  0  0  0  0  1  0  0  0  0  0  0
   -3.6797    1.9886    0.0000 O   0  0  0  0  0  0  0  0  0  0  0  0
  1  2  1  0
  2  3  1  0
  2  4  1  0
  4  5  1  6
  5  6  1  0
  6  7  1  0
  7  8  1  0
  8  9  1  0
  9 10  1  0
 10 11  1  0
  4 12  1  0
 12 13  1  0
 12 14  2  0
M  ISO  4   1   1   3   3  11   4  13   2
M  END
>  <symbol>  (992) 
AoaLys

>  <m_abbr>  (992) 
AoaLys

>  <m_name>  (992) 
AoaLys

>  <m_type>  (992) 
aa

>  <m_subtype>  (992) 
modified

>  <m_Rgroups>  (992) 
[H],[OH],[H],[H]

>  <m_chem_types>  (992) 
1:backbone_n,2:backbone_c,3:backbone_n_mod,4:aminooxy

>  <m_activation_policy>  (992) 
canonical-sites-v1

$$$$

     RDKit          2D

 13 12  0  0  0  0  0  0  0  0999 V2000
   -4.2869   -0.2967    0.0000 R   0  0  0  0  0  1  0  0  0  0  0  0
   -2.9482   -0.9733    0.0000 N   0  0  0  0  0  0  0  0  0  0  0  0
   -2.8647   -2.4710    0.0000 R   0  0  0  0  0  1  0  0  0  0  0  0
   -1.6929   -0.1521    0.0000 C   0  0  0  0  0  0  0  0  0  0  0  0
   -0.3541   -0.8287    0.0000 C   0  0  0  0  0  0  0  0  0  0  0  0
    0.9012   -0.0075    0.0000 C   0  0  0  0  0  0  0  0  0  0  0  0
    2.2399   -0.6841    0.0000 C   0  0  0  0  0  0  0  0  0  0  0  0
    3.4952    0.1371    0.0000 O   0  0  0  0  0  0  0  0  0  0  0  0
    4.8340   -0.5395    0.0000 N   0  0  0  0  0  0  0  0  0  0  0  0
    6.0892    0.2817    0.0000 R   0  0  0  0  0  1  0  0  0  0  0  0
   -1.7764    1.3455    0.0000 C   0  0  0  0  0  0  0  0  0  0  0  0
   -0.5211    2.1667    0.0000 R   0  0  0  0  0  1  0  0  0  0  0  0
   -3.1151    2.0221    0.0000 O   0  0  0  0  0  0  0  0  0  0  0  0
  1  2  1  0
  2  3  1  0
  2  4  1  0
  4  5  1  6
  5  6  1  0
  6  7  1  0
  7  8  1  0
  8  9  1  0
  9 10  1  0
  4 11  1  0
 11 12  1  0
 11 13  2  0
M  ISO  4   1   1   3   3  10   4  12   2
M  END
>  <symbol>  (993) 
AoaOrn

>  <m_abbr>  (993) 
AoaOrn

>  <m_name>  (993) 
AoaOrn

>  <m_type>  (993) 
aa

>  <m_subtype>  (993) 
modified

>  <m_Rgroups>  (993) 
[H],[OH],[H],[H]

>  <m_chem_types>  (993) 
1:backbone_n,2:backbone_c,3:backbone_n_mod,4:aminooxy

>  <m_activation_policy>  (993) 
canonical-sites-v1

$$$$

     RDKit          2D

 12 11  0  0  0  0  0  0  0  0999 V2000
   -3.7710   -0.3727    0.0000 R   0  0  0  0  0  1  0  0  0  0  0  0
   -2.4149   -1.0137    0.0000 N   0  0  0  0  0  0  0  0  0  0  0  0
   -2.2920   -2.5087    0.0000 R   0  0  0  0  0  1  0  0  0  0  0  0
   -1.1817   -0.1598    0.0000 C   0  0  0  0  0  0  0  0  0  0  0  0
    0.1744   -0.8009    0.0000 C   0  0  0  0  0  0  0  0  0  0  0  0
    1.4077    0.0530    0.0000 C   0  0  0  0  0  0  0  0  0  0  0  0
    2.7638   -0.5881    0.0000 O   0  0  0  0  0  0  0  0  0  0  0  0
    3.9970    0.2658    0.0000 N   0  0  0  0  0  0  0  0  0  0  0  0
    5.3531   -0.3752    0.0000 R   0  0  0  0  0  1  0  0  0  0  0  0
   -1.3045    1.3351    0.0000 C   0  0  0  0  0  0  0  0  0  0  0  0
   -0.0713    2.1890    0.0000 R   0  0  0  0  0  1  0  0  0  0  0  0
   -2.6607    1.9762    0.0000 O   0  0  0  0  0  0  0  0  0  0  0  0
  1  2  1  0
  2  3  1  0
  2  4  1  0
  4  5  1  6
  5  6  1  0
  6  7  1  0
  7  8  1  0
  8  9  1  0
  4 10  1  0
 10 11  1  0
 10 12  2  0
M  ISO  4   1   1   3   3   9   4  11   2
M  END
>  <symbol>  (994) 
AoaDab

>  <m_abbr>  (994) 
AoaDab

>  <m_name>  (994) 
AoaDab

>  <m_type>  (994) 
aa

>  <m_subtype>  (994) 
modified

>  <m_Rgroups>  (994) 
[H],[OH],[H],[H]

>  <m_chem_types>  (994) 
1:backbone_n,2:backbone_c,3:backbone_n_mod,4:aminooxy

>  <m_activation_policy>  (994) 
canonical-sites-v1

$$$$

     RDKit          2D

 11 10  0  0  0  0  0  0  0  0999 V2000
   -3.3018   -0.2248    0.0000 R   0  0  0  0  0  1  0  0  0  0  0  0
   -1.9832   -0.9398    0.0000 N   0  0  0  0  0  0  0  0  0  0  0  0
   -1.9430   -2.4392    0.0000 R   0  0  0  0  0  1  0  0  0  0  0  0
   -0.7047   -0.1553    0.0000 C   0  0  0  0  0  0  0  0  0  0  0  0
    0.6140   -0.8702    0.0000 C   0  0  0  0  0  0  0  0  0  0  0  0
    1.8925   -0.0858    0.0000 O   0  0  0  0  0  0  0  0  0  0  0  0
    3.2111   -0.8007    0.0000 N   0  0  0  0  0  0  0  0  0  0  0  0
    4.4896   -0.0162    0.0000 R   0  0  0  0  0  1  0  0  0  0  0  0
   -0.7448    1.3442    0.0000 C   0  0  0  0  0  0  0  0  0  0  0  0
    0.5337    2.1287    0.0000 R   0  0  0  0  0  1  0  0  0  0  0  0
   -2.0634    2.0592    0.0000 O   0  0  0  0  0  0  0  0  0  0  0  0
  1  2  1  0
  2  3  1  0
  2  4  1  0
  4  5  1  1
  5  6  1  0
  6  7  1  0
  7  8  1  0
  4  9  1  0
  9 10  1  0
  9 11  2  0
M  ISO  4   1   1   3   3   8   4  10   2
M  END
>  <symbol>  (995) 
D_Aoa

>  <m_abbr>  (995) 
D_Aoa

>  <m_name>  (995) 
D_Aoa

>  <m_type>  (995) 
aa

>  <m_subtype>  (995) 
modified

>  <m_Rgroups>  (995) 
[H],[OH],[H],[H]

>  <m_chem_types>  (995) 
1:backbone_n,2:backbone_c,3:backbone_n_mod,4:aminooxy

>  <m_activation_policy>  (995) 
canonical-sites-v1

$$$$

     RDKit          2D

 22 22  0  0  0  0  0  0  0  0999 V2000
    6.4201   -1.2124    0.0000 R   0  0  0  0  0  1  0  0  0  0  0  0
    4.9414   -0.9608    0.0000 N   0  0  0  0  0  0  0  0  0  0  0  0
    3.9841   -2.1155    0.0000 R   0  0  0  0  0  1  0  0  0  0  0  0
    4.4200    0.4457    0.0000 C   0  0  0  0  0  0  0  0  0  0  0  0
    2.9412    0.6974    0.0000 C   0  0  0  0  0  0  0  0  0  0  0  0
    1.9839   -0.4574    0.0000 C   0  0  0  0  0  0  0  0  0  0  0  0
    0.5052   -0.2058    0.0000 C   0  0  0  0  0  0  0  0  0  0  0  0
   -0.4521   -1.3606    0.0000 C   0  0  0  0  0  0  0  0  0  0  0  0
    0.0693   -2.7670    0.0000 R   0  0  0  0  0  1  0  0  0  0  0  0
   -1.9309   -1.1089    0.0000 C   0  0  0  0  0  0  0  0  0  0  0  0
   -2.8882   -2.2637    0.0000 O   0  0  0  0  0  0  0  0  0  0  0  0
   -2.4523    0.2976    0.0000 O   0  0  0  0  0  0  0  0  0  0  0  0
   -3.9310    0.5492    0.0000 N   0  0  0  0  0  0  0  0  0  0  0  0
   -4.5966    1.8935    0.0000 C   0  0  0  0  0  0  0  0  0  0  0  0
   -3.9003    3.2221    0.0000 O   0  0  0  0  0  0  0  0  0  0  0  0
   -6.0807    1.6759    0.0000 C   0  0  0  0  0  0  0  0  0  0  0  0
   -6.3324    0.1971    0.0000 C   0  0  0  0  0  0  0  0  0  0  0  0
   -5.0038   -0.4992    0.0000 C   0  0  0  0  0  0  0  0  0  0  0  0
   -4.7862   -1.9833    0.0000 O   0  0  0  0  0  0  0  0  0  0  0  0
    5.3773    1.6005    0.0000 C   0  0  0  0  0  0  0  0  0  0  0  0
    6.8560    1.3488    0.0000 R   0  0  0  0  0  1  0  0  0  0  0  0
    4.8559    3.0069    0.0000 O   0  0  0  0  0  0  0  0  0  0  0  0
  1  2  1  0
  2  3  1  0
  2  4  1  0
  4  5  1  1
  5  6  1  0
  6  7  1  0
  7  8  1  0
  8  9  1  0
  8 10  1  0
 10 11  2  0
 10 12  1  0
 12 13  1  0
 13 14  1  0
 14 15  2  0
 14 16  1  0
 16 17  1  0
 17 18  1  0
 18 19  2  0
  4 20  1  0
 20 21  1  0
 20 22  2  0
 18 13  1  0
M  ISO  4   1   1   3   3   9   4  21   2
M  END
>  <symbol>  (996) 
NHSLys

>  <m_abbr>  (996) 
NHSLys

>  <m_name>  (996) 
NHSLys

>  <m_type>  (996) 
aa

>  <m_subtype>  (996) 
modified

>  <m_Rgroups>  (996) 
[H],[OH],[H],[H]

>  <m_chem_types>  (996) 
1:backbone_n,2:backbone_c,3:backbone_n_mod,4:nhs_ester

>  <m_activation_policy>  (996) 
canonical-sites-v1

$$$$

     RDKit          2D

 21 21  0  0  0  0  0  0  0  0999 V2000
    4.2997    2.6539    0.0000 R   0  0  0  0  0  1  0  0  0  0  0  0
    3.2662    1.5669    0.0000 N   0  0  0  0  0  0  0  0  0  0  0  0
    1.8079    1.9185    0.0000 R   0  0  0  0  0  1  0  0  0  0  0  0
    3.6908    0.1282    0.0000 C   0  0  0  0  0  0  0  0  0  0  0  0
    2.6572   -0.9588    0.0000 C   0  0  0  0  0  0  0  0  0  0  0  0
    1.1990   -0.6072    0.0000 C   0  0  0  0  0  0  0  0  0  0  0  0
    0.1654   -1.6943    0.0000 C   0  0  0  0  0  0  0  0  0  0  0  0
    0.5900   -3.1329    0.0000 R   0  0  0  0  0  1  0  0  0  0  0  0
   -1.2928   -1.3427    0.0000 C   0  0  0  0  0  0  0  0  0  0  0  0
   -2.3264   -2.4298    0.0000 O   0  0  0  0  0  0  0  0  0  0  0  0
   -1.7174    0.0959    0.0000 O   0  0  0  0  0  0  0  0  0  0  0  0
   -3.1757    0.4475    0.0000 N   0  0  0  0  0  0  0  0  0  0  0  0
   -3.7483    1.8339    0.0000 C   0  0  0  0  0  0  0  0  0  0  0  0
   -2.9634    3.1121    0.0000 O   0  0  0  0  0  0  0  0  0  0  0  0
   -5.2438    1.7176    0.0000 C   0  0  0  0  0  0  0  0  0  0  0  0
   -5.5954    0.2594    0.0000 C   0  0  0  0  0  0  0  0  0  0  0  0
   -4.3172   -0.5256    0.0000 C   0  0  0  0  0  0  0  0  0  0  0  0
   -4.2010   -2.0210    0.0000 O   0  0  0  0  0  0  0  0  0  0  0  0
    5.1490   -0.2233    0.0000 C   0  0  0  0  0  0  0  0  0  0  0  0
    6.1826    0.8637    0.0000 R   0  0  0  0  0  1  0  0  0  0  0  0
    5.5736   -1.6620    0.0000 O   0  0  0  0  0  0  0  0  0  0  0  0
  1  2  1  0
  2  3  1  0
  2  4  1  0
  4  5  1  6
  5  6  1  0
  6  7  1  0
  7  8  1  0
  7  9  1  0
  9 10  2  0
  9 11  1  0
 11 12  1  0
 12 13  1  0
 13 14  2  0
 13 15  1  0
 15 16  1  0
 16 17  1  0
 17 18  2  0
  4 19  1  0
 19 20  1  0
 19 21  2  0
 17 12  1  0
M  ISO  4   1   1   3   3   8   4  20   2
M  END
>  <symbol>  (997) 
NHSOrn

>  <m_abbr>  (997) 
NHSOrn

>  <m_name>  (997) 
NHSOrn

>  <m_type>  (997) 
aa

>  <m_subtype>  (997) 
modified

>  <m_Rgroups>  (997) 
[H],[OH],[H],[H]

>  <m_chem_types>  (997) 
1:backbone_n,2:backbone_c,3:backbone_n_mod,4:nhs_ester

>  <m_activation_policy>  (997) 
canonical-sites-v1

$$$$

     RDKit          2D

 20 20  0  0  0  0  0  0  0  0999 V2000
   -5.3131    0.8959    0.0000 R   0  0  0  0  0  1  0  0  0  0  0  0
   -3.8131    0.8997    0.0000 N   0  0  0  0  0  0  0  0  0  0  0  0
   -3.0664    2.2006    0.0000 R   0  0  0  0  0  1  0  0  0  0  0  0
   -3.0598   -0.3975    0.0000 C   0  0  0  0  0  0  0  0  0  0  0  0
   -1.5598   -0.3937    0.0000 C   0  0  0  0  0  0  0  0  0  0  0  0
   -0.8131    0.9073    0.0000 C   0  0  0  0  0  0  0  0  0  0  0  0
   -1.5664    2.2044    0.0000 R   0  0  0  0  0  1  0  0  0  0  0  0
    0.6869    0.9111    0.0000 C   0  0  0  0  0  0  0  0  0  0  0  0
    1.4336    2.2120    0.0000 O   0  0  0  0  0  0  0  0  0  0  0  0
    1.4402   -0.3861    0.0000 O   0  0  0  0  0  0  0  0  0  0  0  0
    2.9402   -0.3823    0.0000 N   0  0  0  0  0  0  0  0  0  0  0  0
    3.8249   -1.5936    0.0000 C   0  0  0  0  0  0  0  0  0  0  0  0
    3.3650   -3.0213    0.0000 O   0  0  0  0  0  0  0  0  0  0  0  0
    5.2503   -1.1264    0.0000 C   0  0  0  0  0  0  0  0  0  0  0  0
    5.2465    0.3736    0.0000 C   0  0  0  0  0  0  0  0  0  0  0  0
    3.8188    0.8335    0.0000 C   0  0  0  0  0  0  0  0  0  0  0  0
    3.3516    2.2589    0.0000 O   0  0  0  0  0  0  0  0  0  0  0  0
   -3.8065   -1.6984    0.0000 C   0  0  0  0  0  0  0  0  0  0  0  0
   -5.3065   -1.7022    0.0000 R   0  0  0  0  0  1  0  0  0  0  0  0
   -3.0532   -2.9955    0.0000 O   0  0  0  0  0  0  0  0  0  0  0  0
  1  2  1  0
  2  3  1  0
  2  4  1  0
  4  5  1  1
  5  6  1  0
  6  7  1  0
  6  8  1  0
  8  9  2  0
  8 10  1  0
 10 11  1  0
 11 12  1  0
 12 13  2  0
 12 14  1  0
 14 15  1  0
 15 16  1  0
 16 17  2  0
  4 18  1  0
 18 19  1  0
 18 20  2  0
 16 11  1  0
M  ISO  4   1   1   3   3   7   4  19   2
M  END
>  <symbol>  (998) 
NHSDab

>  <m_abbr>  (998) 
NHSDab

>  <m_name>  (998) 
NHSDab

>  <m_type>  (998) 
aa

>  <m_subtype>  (998) 
modified

>  <m_Rgroups>  (998) 
[H],[OH],[H],[H]

>  <m_chem_types>  (998) 
1:backbone_n,2:backbone_c,3:backbone_n_mod,4:nhs_ester

>  <m_activation_policy>  (998) 
canonical-sites-v1

$$$$

     RDKit          2D

 19 19  0  0  0  0  0  0  0  0999 V2000
    2.3959    2.6978    0.0000 R   0  0  0  0  0  1  0  0  0  0  0  0
    1.6257    1.4106    0.0000 N   0  0  0  0  0  0  0  0  0  0  0  0
    0.1259    1.4340    0.0000 R   0  0  0  0  0  1  0  0  0  0  0  0
    2.3553    0.1000    0.0000 C   0  0  0  0  0  0  0  0  0  0  0  0
    3.8551    0.0766    0.0000 C   0  0  0  0  0  0  0  0  0  0  0  0
    4.6253    1.3638    0.0000 R   0  0  0  0  0  1  0  0  0  0  0  0
    4.5848   -1.2340    0.0000 O   0  0  0  0  0  0  0  0  0  0  0  0
    1.5852   -1.1872    0.0000 C   0  0  0  0  0  0  0  0  0  0  0  0
    2.3148   -2.4978    0.0000 R   0  0  0  0  0  1  0  0  0  0  0  0
    0.0853   -1.1638    0.0000 C   0  0  0  0  0  0  0  0  0  0  0  0
   -0.6848   -2.4509    0.0000 O   0  0  0  0  0  0  0  0  0  0  0  0
   -0.6443    0.1468    0.0000 O   0  0  0  0  0  0  0  0  0  0  0  0
   -2.1441    0.1702    0.0000 N   0  0  0  0  0  0  0  0  0  0  0  0
   -3.0068    1.3974    0.0000 C   0  0  0  0  0  0  0  0  0  0  0  0
   -2.5210    2.8165    0.0000 O   0  0  0  0  0  0  0  0  0  0  0  0
   -4.4404    0.9561    0.0000 C   0  0  0  0  0  0  0  0  0  0  0  0
   -4.4638   -0.5437    0.0000 C   0  0  0  0  0  0  0  0  0  0  0  0
   -3.0446   -1.0294    0.0000 C   0  0  0  0  0  0  0  0  0  0  0  0
   -2.6034   -2.4630    0.0000 O   0  0  0  0  0  0  0  0  0  0  0  0
  1  2  1  0
  2  3  1  0
  2  4  1  0
  4  5  1  0
  5  6  1  0
  5  7  2  0
  4  8  1  1
  8  9  1  0
  8 10  1  0
 10 11  2  0
 10 12  1  0
 12 13  1  0
 13 14  1  0
 14 15  2  0
 14 16  1  0
 16 17  1  0
 17 18  1  0
 18 19  2  0
 18 13  1  0
M  ISO  4   1   1   3   3   6   2   9   4
M  END
>  <symbol>  (999) 
D_NHSAla

>  <m_abbr>  (999) 
D_NHSAla

>  <m_name>  (999) 
D_NHSAla

>  <m_type>  (999) 
aa

>  <m_subtype>  (999) 
modified

>  <m_Rgroups>  (999) 
[H],[OH],[H],[H]

>  <m_chem_types>  (999) 
1:backbone_n,2:backbone_c,3:backbone_n_mod,4:nhs_ester

>  <m_activation_policy>  (999) 
canonical-sites-v1

$$$$

     RDKit          2D

 16 15  0  0  0  0  0  0  0  0999 V2000
   -5.4318   -0.2976    0.0000 R   0  0  0  0  0  1  0  0  0  0  0  0
   -4.0879   -0.9639    0.0000 N   0  0  0  0  0  0  0  0  0  0  0  0
   -3.9929   -2.4609    0.0000 R   0  0  0  0  0  1  0  0  0  0  0  0
   -2.8389   -0.1331    0.0000 C   0  0  0  0  0  0  0  0  0  0  0  0
   -1.4950   -0.7994    0.0000 C   0  0  0  0  0  0  0  0  0  0  0  0
   -0.2460    0.0314    0.0000 C   0  0  0  0  0  0  0  0  0  0  0  0
    1.0979   -0.6349    0.0000 C   0  0  0  0  0  0  0  0  0  0  0  0
    2.3468    0.1959    0.0000 C   0  0  0  0  0  0  0  0  0  0  0  0
    3.6907   -0.4704    0.0000 C   0  0  0  0  0  0  0  0  0  0  0  0
    3.7857   -1.9674    0.0000 O   0  0  0  0  0  0  0  0  0  0  0  0
    4.9397    0.3604    0.0000 N   0  0  0  0  0  0  0  0  0  0  0  0
    6.2836   -0.3059    0.0000 R   0  0  0  0  0  1  0  0  0  0  0  0
    4.8447    1.8574    0.0000 N   0  0  0  0  0  0  0  0  0  0  0  0
   -2.9339    1.3638    0.0000 C   0  0  0  0  0  0  0  0  0  0  0  0
   -1.6849    2.1946    0.0000 R   0  0  0  0  0  1  0  0  0  0  0  0
   -4.2778    2.0301    0.0000 O   0  0  0  0  0  0  0  0  0  0  0  0
  1  2  1  0
  2  3  1  0
  2  4  1  0
  4  5  1  6
  5  6  1  0
  6  7  1  0
  7  8  1  0
  8  9  1  0
  9 10  2  0
  9 11  1  0
 11 12  1  0
 11 13  1  0
  4 14  1  0
 14 15  1  0
 14 16  2  0
M  ISO  4   1   1   3   3  12   4  15   2
M  END
>  <symbol>  (1000) 
HzLys

>  <m_abbr>  (1000) 
HzLys

>  <m_name>  (1000) 
HzLys

>  <m_type>  (1000) 
aa

>  <m_subtype>  (1000) 
modified

>  <m_Rgroups>  (1000) 
[H],[OH],[H],[H]

>  <m_chem_types>  (1000) 
1:backbone_n,2:backbone_c,3:backbone_n_mod,4:hydrazide

>  <m_activation_policy>  (1000) 
canonical-sites-v1

$$$$

     RDKit          2D

 15 14  0  0  0  0  0  0  0  0999 V2000
   -4.8314   -0.4209    0.0000 R   0  0  0  0  0  1  0  0  0  0  0  0
   -3.4722   -1.0553    0.0000 N   0  0  0  0  0  0  0  0  0  0  0  0
   -3.3421   -2.5496    0.0000 R   0  0  0  0  0  1  0  0  0  0  0  0
   -2.2432   -0.1954    0.0000 C   0  0  0  0  0  0  0  0  0  0  0  0
   -0.8840   -0.8298    0.0000 C   0  0  0  0  0  0  0  0  0  0  0  0
    0.3451    0.0301    0.0000 C   0  0  0  0  0  0  0  0  0  0  0  0
    1.7043   -0.6044    0.0000 C   0  0  0  0  0  0  0  0  0  0  0  0
    2.9334    0.2555    0.0000 C   0  0  0  0  0  0  0  0  0  0  0  0
    2.8032    1.7499    0.0000 O   0  0  0  0  0  0  0  0  0  0  0  0
    4.2926   -0.3789    0.0000 N   0  0  0  0  0  0  0  0  0  0  0  0
    5.5217    0.4810    0.0000 R   0  0  0  0  0  1  0  0  0  0  0  0
    4.4228   -1.8733    0.0000 N   0  0  0  0  0  0  0  0  0  0  0  0
   -2.3733    1.2989    0.0000 C   0  0  0  0  0  0  0  0  0  0  0  0
   -1.1443    2.1588    0.0000 R   0  0  0  0  0  1  0  0  0  0  0  0
   -3.7326    1.9334    0.0000 O   0  0  0  0  0  0  0  0  0  0  0  0
  1  2  1  0
  2  3  1  0
  2  4  1  0
  4  5  1  6
  5  6  1  0
  6  7  1  0
  7  8  1  0
  8  9  2  0
  8 10  1  0
 10 11  1  0
 10 12  1  0
  4 13  1  0
 13 14  1  0
 13 15  2  0
M  ISO  4   1   1   3   3  11   4  14   2
M  END
>  <symbol>  (1001) 
HzOrn

>  <m_abbr>  (1001) 
HzOrn

>  <m_name>  (1001) 
HzOrn

>  <m_type>  (1001) 
aa

>  <m_subtype>  (1001) 
modified

>  <m_Rgroups>  (1001) 
[H],[OH],[H],[H]

>  <m_chem_types>  (1001) 
1:backbone_n,2:backbone_c,3:backbone_n_mod,4:hydrazide

>  <m_activation_policy>  (1001) 
canonical-sites-v1

$$$$

     RDKit          2D

 14 13  0  0  0  0  0  0  0  0999 V2000
   -4.2577   -0.3004    0.0000 R   0  0  0  0  0  1  0  0  0  0  0  0
   -2.9091   -0.9571    0.0000 N   0  0  0  0  0  0  0  0  0  0  0  0
   -2.8035   -2.4534    0.0000 R   0  0  0  0  0  1  0  0  0  0  0  0
   -1.6661   -0.1175    0.0000 C   0  0  0  0  0  0  0  0  0  0  0  0
   -0.3175   -0.7743    0.0000 C   0  0  0  0  0  0  0  0  0  0  0  0
    0.9256    0.0653    0.0000 C   0  0  0  0  0  0  0  0  0  0  0  0
    2.2742   -0.5914    0.0000 C   0  0  0  0  0  0  0  0  0  0  0  0
    2.3797   -2.0877    0.0000 O   0  0  0  0  0  0  0  0  0  0  0  0
    3.5172    0.2481    0.0000 N   0  0  0  0  0  0  0  0  0  0  0  0
    4.8658   -0.4086    0.0000 R   0  0  0  0  0  1  0  0  0  0  0  0
    3.4117    1.7444    0.0000 N   0  0  0  0  0  0  0  0  0  0  0  0
   -1.7716    1.3787    0.0000 C   0  0  0  0  0  0  0  0  0  0  0  0
   -0.5286    2.2183    0.0000 R   0  0  0  0  0  1  0  0  0  0  0  0
   -3.1202    2.0355    0.0000 O   0  0  0  0  0  0  0  0  0  0  0  0
  1  2  1  0
  2  3  1  0
  2  4  1  0
  4  5  1  6
  5  6  1  0
  6  7  1  0
  7  8  2  0
  7  9  1  0
  9 10  1  0
  9 11  1  0
  4 12  1  0
 12 13  1  0
 12 14  2  0
M  ISO  4   1   1   3   3  10   4  13   2
M  END
>  <symbol>  (1002) 
HzDab

>  <m_abbr>  (1002) 
HzDab

>  <m_name>  (1002) 
HzDab

>  <m_type>  (1002) 
aa

>  <m_subtype>  (1002) 
modified

>  <m_Rgroups>  (1002) 
[H],[OH],[H],[H]

>  <m_chem_types>  (1002) 
1:backbone_n,2:backbone_c,3:backbone_n_mod,4:hydrazide

>  <m_activation_policy>  (1002) 
canonical-sites-v1

$$$$

     RDKit          2D

 13 12  0  0  0  0  0  0  0  0999 V2000
   -3.6603   -0.5247    0.0000 R   0  0  0  0  0  1  0  0  0  0  0  0
   -2.2769   -1.1044    0.0000 N   0  0  0  0  0  0  0  0  0  0  0  0
   -2.0872   -2.5924    0.0000 R   0  0  0  0  0  1  0  0  0  0  0  0
   -1.0831   -0.1962    0.0000 C   0  0  0  0  0  0  0  0  0  0  0  0
    0.3004   -0.7759    0.0000 C   0  0  0  0  0  0  0  0  0  0  0  0
    1.4942    0.1323    0.0000 C   0  0  0  0  0  0  0  0  0  0  0  0
    1.3045    1.6202    0.0000 O   0  0  0  0  0  0  0  0  0  0  0  0
    2.8776   -0.4475    0.0000 N   0  0  0  0  0  0  0  0  0  0  0  0
    4.0714    0.4608    0.0000 R   0  0  0  0  0  1  0  0  0  0  0  0
    3.0672   -1.9354    0.0000 N   0  0  0  0  0  0  0  0  0  0  0  0
   -1.2727    1.2918    0.0000 C   0  0  0  0  0  0  0  0  0  0  0  0
   -0.0789    2.2000    0.0000 R   0  0  0  0  0  1  0  0  0  0  0  0
   -2.6562    1.8715    0.0000 O   0  0  0  0  0  0  0  0  0  0  0  0
  1  2  1  0
  2  3  1  0
  2  4  1  0
  4  5  1  1
  5  6  1  0
  6  7  2  0
  6  8  1  0
  8  9  1  0
  8 10  1  0
  4 11  1  0
 11 12  1  0
 11 13  2  0
M  ISO  4   1   1   3   3   9   4  12   2
M  END
>  <symbol>  (1003) 
D_HzAla

>  <m_abbr>  (1003) 
D_HzAla

>  <m_name>  (1003) 
D_HzAla

>  <m_type>  (1003) 
aa

>  <m_subtype>  (1003) 
modified

>  <m_Rgroups>  (1003) 
[H],[OH],[H],[H]

>  <m_chem_types>  (1003) 
1:backbone_n,2:backbone_c,3:backbone_n_mod,4:hydrazide

>  <m_activation_policy>  (1003) 
canonical-sites-v1

$$$$

     RDKit          2D

 18 17  0  0  0  0  0  0  0  0999 V2000
   -5.3238    0.4214    0.0000 R   0  0  0  0  0  1  0  0  0  0  0  0
   -4.2440   -0.6198    0.0000 N   0  0  0  0  0  0  0  0  0  0  0  0
   -4.6058   -2.0755    0.0000 R   0  0  0  0  0  1  0  0  0  0  0  0
   -2.8025   -0.2052    0.0000 C   0  0  0  0  0  0  0  0  0  0  0  0
   -1.7226   -1.2463    0.0000 C   0  0  0  0  0  0  0  0  0  0  0  0
   -0.2811   -0.8318    0.0000 C   0  0  0  0  0  0  0  0  0  0  0  0
    0.7988   -1.8729    0.0000 C   0  0  0  0  0  0  0  0  0  0  0  0
    2.2403   -1.4583    0.0000 N   0  0  0  0  0  0  0  0  0  0  0  0
    3.3201   -2.4995    0.0000 R   0  0  0  0  0  1  0  0  0  0  0  0
    2.6021   -0.0026    0.0000 C   0  0  0  0  0  0  0  0  0  0  0  0
    1.5223    1.0385    0.0000 N   0  0  0  0  0  0  0  0  0  0  0  0
    1.8840    2.4943    0.0000 R   0  0  0  0  0  1  0  0  0  0  0  0
    4.0437    0.4120    0.0000 N   0  0  0  0  0  0  0  0  0  0  0  0
    4.4054    1.8677    0.0000 R   0  0  0  0  0  1  0  0  0  0  0  0
    5.1235   -0.6292    0.0000 R   0  0  0  0  0  1  0  0  0  0  0  0
   -2.4407    1.2505    0.0000 C   0  0  0  0  0  0  0  0  0  0  0  0
   -0.9991    1.6651    0.0000 R   0  0  0  0  0  1  0  0  0  0  0  0
   -3.5205    2.2917    0.0000 O   0  0  0  0  0  0  0  0  0  0  0  0
  1  2  1  0
  2  3  1  0
  2  4  1  0
  4  5  1  6
  5  6  1  0
  6  7  1  0
  7  8  1  0
  8  9  1  0
  8 10  1  0
 10 11  2  3
 11 12  1  0
 10 13  1  0
 13 14  1  0
 13 15  1  0
  4 16  1  0
 16 17  1  0
 16 18  2  0
M  ISO  7   1   1   3   3   9   7  12   4  14   5  15   6  17   2
M  END
>  <symbol>  (1004) 
R

>  <m_abbr>  (1004) 
R

>  <m_name>  (1004) 
R

>  <m_type>  (1004) 
aa

>  <m_subtype>  (1004) 
modified

>  <m_Rgroups>  (1004) 
[H],[OH],[H],[H],[H],[H],[H]

>  <m_chem_types>  (1004) 
1:backbone_n,2:backbone_c,3:backbone_n_mod,4:guanidinium_imine,5:guanidinium,6:guanidinium,7:guanidinium

>  <m_activation_policy>  (1004) 
canonical-sites-v1

$$$$

     RDKit          2D

 18 17  0  0  0  0  0  0  0  0999 V2000
   -5.3238    0.4214    0.0000 R   0  0  0  0  0  1  0  0  0  0  0  0
   -4.2440   -0.6198    0.0000 N   0  0  0  0  0  0  0  0  0  0  0  0
   -4.6058   -2.0755    0.0000 R   0  0  0  0  0  1  0  0  0  0  0  0
   -2.8025   -0.2052    0.0000 C   0  0  0  0  0  0  0  0  0  0  0  0
   -1.7226   -1.2463    0.0000 C   0  0  0  0  0  0  0  0  0  0  0  0
   -0.2811   -0.8318    0.0000 C   0  0  0  0  0  0  0  0  0  0  0  0
    0.7988   -1.8729    0.0000 C   0  0  0  0  0  0  0  0  0  0  0  0
    2.2403   -1.4583    0.0000 N   0  0  0  0  0  0  0  0  0  0  0  0
    3.3201   -2.4995    0.0000 R   0  0  0  0  0  1  0  0  0  0  0  0
    2.6021   -0.0026    0.0000 C   0  0  0  0  0  0  0  0  0  0  0  0
    1.5223    1.0385    0.0000 N   0  0  0  0  0  0  0  0  0  0  0  0
    1.8840    2.4943    0.0000 R   0  0  0  0  0  1  0  0  0  0  0  0
    4.0437    0.4120    0.0000 N   0  0  0  0  0  0  0  0  0  0  0  0
    4.4054    1.8677    0.0000 R   0  0  0  0  0  1  0  0  0  0  0  0
    5.1235   -0.6292    0.0000 R   0  0  0  0  0  1  0  0  0  0  0  0
   -2.4407    1.2505    0.0000 C   0  0  0  0  0  0  0  0  0  0  0  0
   -0.9991    1.6651    0.0000 R   0  0  0  0  0  1  0  0  0  0  0  0
   -3.5205    2.2917    0.0000 O   0  0  0  0  0  0  0  0  0  0  0  0
  1  2  1  0
  2  3  1  0
  2  4  1  0
  4  5  1  1
  5  6  1  0
  6  7  1  0
  7  8  1  0
  8  9  1  0
  8 10  1  0
 10 11  2  3
 11 12  1  0
 10 13  1  0
 13 14  1  0
 13 15  1  0
  4 16  1  0
 16 17  1  0
 16 18  2  0
M  ISO  7   1   1   3   3   9   7  12   4  14   5  15   6  17   2
M  END
>  <symbol>  (1005) 
DArg

>  <m_abbr>  (1005) 
DArg

>  <m_name>  (1005) 
DArg

>  <m_type>  (1005) 
aa

>  <m_subtype>  (1005) 
modified

>  <m_Rgroups>  (1005) 
[H],[OH],[H],[H],[H],[H],[H]

>  <m_chem_types>  (1005) 
1:backbone_n,2:backbone_c,3:backbone_n_mod,4:guanidinium_imine,5:guanidinium,6:guanidinium,7:guanidinium

>  <m_activation_policy>  (1005) 
canonical-sites-v1

$$$$

     RDKit          2D

 18 17  0  0  0  0  0  0  0  0999 V2000
   -5.3238    0.4214    0.0000 R   0  0  0  0  0  1  0  0  0  0  0  0
   -4.2440   -0.6198    0.0000 N   0  0  0  0  0  0  0  0  0  0  0  0
   -4.6058   -2.0755    0.0000 R   0  0  0  0  0  1  0  0  0  0  0  0
   -2.8025   -0.2052    0.0000 C   0  0  0  0  0  0  0  0  0  0  0  0
   -1.7226   -1.2463    0.0000 C   0  0  0  0  0  0  0  0  0  0  0  0
   -0.2811   -0.8318    0.0000 C   0  0  0  0  0  0  0  0  0  0  0  0
    0.7988   -1.8729    0.0000 C   0  0  0  0  0  0  0  0  0  0  0  0
    2.2403   -1.4583    0.0000 N   0  0  0  0  0  0  0  0  0  0  0  0
    3.3201   -2.4995    0.0000 R   0  0  0  0  0  1  0  0  0  0  0  0
    2.6021   -0.0026    0.0000 C   0  0  0  0  0  0  0  0  0  0  0  0
    1.5223    1.0385    0.0000 N   0  0  0  0  0  0  0  0  0  0  0  0
    1.8840    2.4943    0.0000 R   0  0  0  0  0  1  0  0  0  0  0  0
    4.0437    0.4120    0.0000 N   0  0  0  0  0  0  0  0  0  0  0  0
    4.4054    1.8677    0.0000 R   0  0  0  0  0  1  0  0  0  0  0  0
    5.1235   -0.6292    0.0000 R   0  0  0  0  0  1  0  0  0  0  0  0
   -2.4407    1.2505    0.0000 C   0  0  0  0  0  0  0  0  0  0  0  0
   -0.9991    1.6651    0.0000 R   0  0  0  0  0  1  0  0  0  0  0  0
   -3.5205    2.2917    0.0000 O   0  0  0  0  0  0  0  0  0  0  0  0
  1  2  1  0
  2  3  1  0
  2  4  1  0
  4  5  1  6
  5  6  1  0
  6  7  1  0
  7  8  1  0
  8  9  1  0
  8 10  1  0
 10 11  2  3
 11 12  1  0
 10 13  1  0
 13 14  1  0
 13 15  1  0
  4 16  1  0
 16 17  1  0
 16 18  2  0
M  ISO  7   1   1   3   3   9   7  12   4  14   5  15   6  17   2
M  END
>  <symbol>  (1006) 
Nrg

>  <m_abbr>  (1006) 
Nrg

>  <m_name>  (1006) 
Nrg

>  <m_type>  (1006) 
aa

>  <m_subtype>  (1006) 
modified

>  <m_Rgroups>  (1006) 
[H],[OH],[H],[H],[H],[H],[H]

>  <m_chem_types>  (1006) 
1:backbone_n,2:backbone_c,3:backbone_n_mod,4:guanidinium_imine,5:guanidinium,6:guanidinium,7:guanidinium

>  <m_activation_policy>  (1006) 
canonical-sites-v1

$$$$

     RDKit          2D

 18 17  0  0  0  0  0  0  0  0999 V2000
   -5.3238    0.4214    0.0000 R   0  0  0  0  0  1  0  0  0  0  0  0
   -4.2440   -0.6198    0.0000 N   0  0  0  0  0  0  0  0  0  0  0  0
   -4.6058   -2.0755    0.0000 R   0  0  0  0  0  1  0  0  0  0  0  0
   -2.8025   -0.2052    0.0000 C   0  0  0  0  0  0  0  0  0  0  0  0
   -1.7226   -1.2463    0.0000 C   0  0  0  0  0  0  0  0  0  0  0  0
   -0.2811   -0.8318    0.0000 C   0  0  0  0  0  0  0  0  0  0  0  0
    0.7988   -1.8729    0.0000 C   0  0  0  0  0  0  0  0  0  0  0  0
    2.2403   -1.4583    0.0000 N   0  0  0  0  0  0  0  0  0  0  0  0
    3.3201   -2.4995    0.0000 R   0  0  0  0  0  1  0  0  0  0  0  0
    2.6021   -0.0026    0.0000 C   0  0  0  0  0  0  0  0  0  0  0  0
    1.5223    1.0385    0.0000 N   0  0  0  0  0  0  0  0  0  0  0  0
    1.8840    2.4943    0.0000 R   0  0  0  0  0  1  0  0  0  0  0  0
    4.0437    0.4120    0.0000 N   0  0  0  0  0  0  0  0  0  0  0  0
    4.4054    1.8677    0.0000 R   0  0  0  0  0  1  0  0  0  0  0  0
    5.1235   -0.6292    0.0000 R   0  0  0  0  0  1  0  0  0  0  0  0
   -2.4407    1.2505    0.0000 C   0  0  0  0  0  0  0  0  0  0  0  0
   -0.9991    1.6651    0.0000 R   0  0  0  0  0  1  0  0  0  0  0  0
   -3.5205    2.2917    0.0000 O   0  0  0  0  0  0  0  0  0  0  0  0
  1  2  1  0
  2  3  1  0
  2  4  1  0
  4  5  1  1
  5  6  1  0
  6  7  1  0
  7  8  1  0
  8  9  1  0
  8 10  1  0
 10 11  2  3
 11 12  1  0
 10 13  1  0
 13 14  1  0
 13 15  1  0
  4 16  1  0
 16 17  1  0
 16 18  2  0
M  ISO  7   1   1   3   3   9   7  12   4  14   5  15   6  17   2
M  END
>  <symbol>  (1007) 
D_Nrg

>  <m_abbr>  (1007) 
D_Nrg

>  <m_name>  (1007) 
D_Nrg

>  <m_type>  (1007) 
aa

>  <m_subtype>  (1007) 
modified

>  <m_Rgroups>  (1007) 
[H],[OH],[H],[H],[H],[H],[H]

>  <m_chem_types>  (1007) 
1:backbone_n,2:backbone_c,3:backbone_n_mod,4:guanidinium_imine,5:guanidinium,6:guanidinium,7:guanidinium

>  <m_activation_policy>  (1007) 
canonical-sites-v1

$$$$

     RDKit          2D

 18 17  0  0  0  0  0  0  0  0999 V2000
   -5.3238    0.4214    0.0000 R   0  0  0  0  0  1  0  0  0  0  0  0
   -4.2440   -0.6198    0.0000 N   0  0  0  0  0  0  0  0  0  0  0  0
   -4.6058   -2.0755    0.0000 R   0  0  0  0  0  1  0  0  0  0  0  0
   -2.8025   -0.2052    0.0000 C   0  0  0  0  0  0  0  0  0  0  0  0
   -1.7226   -1.2463    0.0000 C   0  0  0  0  0  0  0  0  0  0  0  0
   -0.2811   -0.8318    0.0000 C   0  0  0  0  0  0  0  0  0  0  0  0
    0.7988   -1.8729    0.0000 C   0  0  0  0  0  0  0  0  0  0  0  0
    2.2403   -1.4583    0.0000 N   0  0  0  0  0  0  0  0  0  0  0  0
    3.3201   -2.4995    0.0000 R   0  0  0  0  0  1  0  0  0  0  0  0
    2.6021   -0.0026    0.0000 C   0  0  0  0  0  0  0  0  0  0  0  0
    1.5223    1.0385    0.0000 N   0  0  0  0  0  0  0  0  0  0  0  0
    1.8840    2.4943    0.0000 R   0  0  0  0  0  1  0  0  0  0  0  0
    4.0437    0.4120    0.0000 N   0  0  0  0  0  0  0  0  0  0  0  0
    4.4054    1.8677    0.0000 R   0  0  0  0  0  1  0  0  0  0  0  0
    5.1235   -0.6292    0.0000 R   0  0  0  0  0  1  0  0  0  0  0  0
   -2.4407    1.2505    0.0000 C   0  0  0  0  0  0  0  0  0  0  0  0
   -0.9991    1.6651    0.0000 R   0  0  0  0  0  1  0  0  0  0  0  0
   -3.5205    2.2917    0.0000 O   0  0  0  0  0  0  0  0  0  0  0  0
  1  2  1  0
  2  3  1  0
  2  4  1  0
  4  5  1  1
  5  6  1  0
  6  7  1  0
  7  8  1  0
  8  9  1  0
  8 10  1  0
 10 11  2  3
 11 12  1  0
 10 13  1  0
 13 14  1  0
 13 15  1  0
  4 16  1  0
 16 17  1  0
 16 18  2  0
M  ISO  7   1   1   3   3   9   7  12   4  14   5  15   6  17   2
M  END
>  <symbol>  (1008) 
dR

>  <m_abbr>  (1008) 
dR

>  <m_name>  (1008) 
dR

>  <m_type>  (1008) 
aa

>  <m_subtype>  (1008) 
modified

>  <m_Rgroups>  (1008) 
[H],[OH],[H],[H],[H],[H],[H]

>  <m_chem_types>  (1008) 
1:backbone_n,2:backbone_c,3:backbone_n_mod,4:guanidinium_imine,5:guanidinium,6:guanidinium,7:guanidinium

>  <m_activation_policy>  (1008) 
canonical-sites-v1

$$$$

     RDKit          2D

 18 17  0  0  0  0  0  0  0  0999 V2000
   -5.3238    0.4214    0.0000 R   0  0  0  0  0  1  0  0  0  0  0  0
   -4.2440   -0.6198    0.0000 N   0  0  0  0  0  0  0  0  0  0  0  0
   -4.6058   -2.0755    0.0000 C   0  0  0  0  0  0  0  0  0  0  0  0
   -2.8025   -0.2052    0.0000 C   0  0  0  0  0  0  0  0  0  0  0  0
   -1.7226   -1.2463    0.0000 C   0  0  0  0  0  0  0  0  0  0  0  0
   -0.2811   -0.8318    0.0000 C   0  0  0  0  0  0  0  0  0  0  0  0
    0.7988   -1.8729    0.0000 C   0  0  0  0  0  0  0  0  0  0  0  0
    2.2403   -1.4583    0.0000 N   0  0  0  0  0  0  0  0  0  0  0  0
    3.3201   -2.4995    0.0000 R   0  0  0  0  0  1  0  0  0  0  0  0
    2.6021   -0.0026    0.0000 C   0  0  0  0  0  0  0  0  0  0  0  0
    1.5223    1.0385    0.0000 N   0  0  0  0  0  0  0  0  0  0  0  0
    1.8840    2.4943    0.0000 R   0  0  0  0  0  1  0  0  0  0  0  0
    4.0437    0.4120    0.0000 N   0  0  0  0  0  0  0  0  0  0  0  0
    4.4054    1.8677    0.0000 R   0  0  0  0  0  1  0  0  0  0  0  0
    5.1235   -0.6292    0.0000 R   0  0  0  0  0  1  0  0  0  0  0  0
   -2.4407    1.2505    0.0000 C   0  0  0  0  0  0  0  0  0  0  0  0
   -0.9991    1.6651    0.0000 R   0  0  0  0  0  1  0  0  0  0  0  0
   -3.5205    2.2917    0.0000 O   0  0  0  0  0  0  0  0  0  0  0  0
  1  2  1  0
  2  3  1  0
  2  4  1  0
  4  5  1  6
  5  6  1  0
  6  7  1  0
  7  8  1  0
  8  9  1  0
  8 10  1  0
 10 11  2  3
 11 12  1  0
 10 13  1  0
 13 14  1  0
 13 15  1  0
  4 16  1  0
 16 17  1  0
 16 18  2  0
M  ISO  6   1   1   9   4  12   5  14   6  15   7  17   2
M  END
>  <symbol>  (1009) 
meR

>  <m_abbr>  (1009) 
meR

>  <m_name>  (1009) 
meR

>  <m_type>  (1009) 
aa

>  <m_subtype>  (1009) 
modified

>  <m_Rgroups>  (1009) 
[H],[OH],None,[H],[H],[H],[H]

>  <m_chem_types>  (1009) 
1:backbone_n,2:backbone_c,4:guanidinium,5:guanidinium_imine,6:guanidinium,7:guanidinium

>  <m_activation_policy>  (1009) 
canonical-sites-v1

$$$$

     RDKit          2D

 18 17  0  0  0  0  0  0  0  0999 V2000
   -5.3238    0.4214    0.0000 R   0  0  0  0  0  1  0  0  0  0  0  0
   -4.2440   -0.6198    0.0000 N   0  0  0  0  0  0  0  0  0  0  0  0
   -4.6058   -2.0755    0.0000 C   0  0  0  0  0  0  0  0  0  0  0  0
   -2.8025   -0.2052    0.0000 C   0  0  0  0  0  0  0  0  0  0  0  0
   -1.7226   -1.2463    0.0000 C   0  0  0  0  0  0  0  0  0  0  0  0
   -0.2811   -0.8318    0.0000 C   0  0  0  0  0  0  0  0  0  0  0  0
    0.7988   -1.8729    0.0000 C   0  0  0  0  0  0  0  0  0  0  0  0
    2.2403   -1.4583    0.0000 N   0  0  0  0  0  0  0  0  0  0  0  0
    3.3201   -2.4995    0.0000 R   0  0  0  0  0  1  0  0  0  0  0  0
    2.6021   -0.0026    0.0000 C   0  0  0  0  0  0  0  0  0  0  0  0
    1.5223    1.0385    0.0000 N   0  0  0  0  0  0  0  0  0  0  0  0
    1.8840    2.4943    0.0000 R   0  0  0  0  0  1  0  0  0  0  0  0
    4.0437    0.4120    0.0000 N   0  0  0  0  0  0  0  0  0  0  0  0
    4.4054    1.8677    0.0000 R   0  0  0  0  0  1  0  0  0  0  0  0
    5.1235   -0.6292    0.0000 R   0  0  0  0  0  1  0  0  0  0  0  0
   -2.4407    1.2505    0.0000 C   0  0  0  0  0  0  0  0  0  0  0  0
   -0.9991    1.6651    0.0000 R   0  0  0  0  0  1  0  0  0  0  0  0
   -3.5205    2.2917    0.0000 O   0  0  0  0  0  0  0  0  0  0  0  0
  1  2  1  0
  2  3  1  0
  2  4  1  0
  4  5  1  1
  5  6  1  0
  6  7  1  0
  7  8  1  0
  8  9  1  0
  8 10  1  0
 10 11  2  3
 11 12  1  0
 10 13  1  0
 13 14  1  0
 13 15  1  0
  4 16  1  0
 16 17  1  0
 16 18  2  0
M  ISO  6   1   1   9   4  12   5  14   6  15   7  17   2
M  END
>  <symbol>  (1010) 
D_meR

>  <m_abbr>  (1010) 
D_meR

>  <m_name>  (1010) 
D_meR

>  <m_type>  (1010) 
aa

>  <m_subtype>  (1010) 
modified

>  <m_Rgroups>  (1010) 
[H],[OH],None,[H],[H],[H],[H]

>  <m_chem_types>  (1010) 
1:backbone_n,2:backbone_c,4:guanidinium,5:guanidinium_imine,6:guanidinium,7:guanidinium

>  <m_activation_policy>  (1010) 
canonical-sites-v1

$$$$

     RDKit          2D

 19 18  0  0  0  0  0  0  0  0999 V2000
   -3.6606    2.2419    0.0000 R   0  0  0  0  0  1  0  0  0  0  0  0
   -3.9484    0.7698    0.0000 N   0  0  0  0  0  0  0  0  0  0  0  0
   -5.3672    0.2829    0.0000 R   0  0  0  0  0  1  0  0  0  0  0  0
   -2.8174   -0.2155    0.0000 C   0  0  0  0  0  0  0  0  0  0  0  0
   -3.8027   -1.3465    0.0000 C   0  0  0  0  0  0  0  0  0  0  0  0
   -1.8321    0.9155    0.0000 C   0  0  0  0  0  0  0  0  0  0  0  0
   -0.3599    0.6277    0.0000 C   0  0  0  0  0  0  0  0  0  0  0  0
    0.6254    1.7587    0.0000 C   0  0  0  0  0  0  0  0  0  0  0  0
    2.0975    1.4709    0.0000 N   0  0  0  0  0  0  0  0  0  0  0  0
    3.0828    2.6019    0.0000 R   0  0  0  0  0  1  0  0  0  0  0  0
    2.5843    0.0521    0.0000 C   0  0  0  0  0  0  0  0  0  0  0  0
    1.5990   -1.0789    0.0000 N   0  0  0  0  0  0  0  0  0  0  0  0
    2.0859   -2.4977    0.0000 R   0  0  0  0  0  1  0  0  0  0  0  0
    4.0565   -0.2357    0.0000 N   0  0  0  0  0  0  0  0  0  0  0  0
    4.5433   -1.6545    0.0000 R   0  0  0  0  0  1  0  0  0  0  0  0
    5.0418    0.8953    0.0000 R   0  0  0  0  0  1  0  0  0  0  0  0
   -1.6864   -1.2008    0.0000 C   0  0  0  0  0  0  0  0  0  0  0  0
   -0.2676   -0.7140    0.0000 R   0  0  0  0  0  1  0  0  0  0  0  0
   -1.9742   -2.6730    0.0000 O   0  0  0  0  0  0  0  0  0  0  0  0
  1  2  1  0
  2  3  1  0
  2  4  1  0
  4  5  1  0
  4  6  1  0
  6  7  1  0
  7  8  1  0
  8  9  1  0
  9 10  1  0
  9 11  1  0
 11 12  2  3
 12 13  1  0
 11 14  1  0
 14 15  1  0
 14 16  1  0
  4 17  1  0
 17 18  1  0
 17 19  2  0
M  ISO  7   1   1   3   3  10   4  13   5  15   6  16   7  18   2
M  END
>  <symbol>  (1011) 
aMeArg

>  <m_abbr>  (1011) 
aMeArg

>  <m_name>  (1011) 
aMeArg

>  <m_type>  (1011) 
aa

>  <m_subtype>  (1011) 
modified

>  <m_Rgroups>  (1011) 
[H],[OH],[H],[H],[H],[H],[H]

>  <m_chem_types>  (1011) 
1:backbone_n,2:backbone_c,3:backbone_n_mod,4:guanidinium,5:guanidinium_imine,6:guanidinium,7:guanidinium

>  <m_activation_policy>  (1011) 
canonical-sites-v1

$$$$

     RDKit          2D

 19 18  0  0  0  0  0  0  0  0999 V2000
   -3.6606    2.2419    0.0000 R   0  0  0  0  0  1  0  0  0  0  0  0
   -3.9484    0.7698    0.0000 N   0  0  0  0  0  0  0  0  0  0  0  0
   -5.3672    0.2829    0.0000 R   0  0  0  0  0  1  0  0  0  0  0  0
   -2.8174   -0.2155    0.0000 C   0  0  0  0  0  0  0  0  0  0  0  0
   -3.8027   -1.3465    0.0000 C   0  0  0  0  0  0  0  0  0  0  0  0
   -1.8321    0.9155    0.0000 C   0  0  0  0  0  0  0  0  0  0  0  0
   -0.3599    0.6277    0.0000 C   0  0  0  0  0  0  0  0  0  0  0  0
    0.6254    1.7587    0.0000 C   0  0  0  0  0  0  0  0  0  0  0  0
    2.0975    1.4709    0.0000 N   0  0  0  0  0  0  0  0  0  0  0  0
    3.0828    2.6019    0.0000 R   0  0  0  0  0  1  0  0  0  0  0  0
    2.5843    0.0521    0.0000 C   0  0  0  0  0  0  0  0  0  0  0  0
    1.5990   -1.0789    0.0000 N   0  0  0  0  0  0  0  0  0  0  0  0
    2.0859   -2.4977    0.0000 R   0  0  0  0  0  1  0  0  0  0  0  0
    4.0565   -0.2357    0.0000 N   0  0  0  0  0  0  0  0  0  0  0  0
    4.5433   -1.6545    0.0000 R   0  0  0  0  0  1  0  0  0  0  0  0
    5.0418    0.8953    0.0000 R   0  0  0  0  0  1  0  0  0  0  0  0
   -1.6864   -1.2008    0.0000 C   0  0  0  0  0  0  0  0  0  0  0  0
   -0.2676   -0.7140    0.0000 R   0  0  0  0  0  1  0  0  0  0  0  0
   -1.9742   -2.6730    0.0000 O   0  0  0  0  0  0  0  0  0  0  0  0
  1  2  1  0
  2  3  1  0
  2  4  1  0
  4  5  1  1
  4  6  1  0
  6  7  1  0
  7  8  1  0
  8  9  1  0
  9 10  1  0
  9 11  1  0
 11 12  2  3
 12 13  1  0
 11 14  1  0
 14 15  1  0
 14 16  1  0
  4 17  1  0
 17 18  1  0
 17 19  2  0
M  ISO  7   1   1   3   3  10   4  13   5  15   6  16   7  18   2
M  END
>  <symbol>  (1012) 
D_aMeArg

>  <m_abbr>  (1012) 
D_aMeArg

>  <m_name>  (1012) 
D_aMeArg

>  <m_type>  (1012) 
aa

>  <m_subtype>  (1012) 
modified

>  <m_Rgroups>  (1012) 
[H],[OH],[H],[H],[H],[H],[H]

>  <m_chem_types>  (1012) 
1:backbone_n,2:backbone_c,3:backbone_n_mod,4:guanidinium,5:guanidinium_imine,6:guanidinium,7:guanidinium

>  <m_activation_policy>  (1012) 
canonical-sites-v1

$$$$

     RDKit          2D

 19 18  0  0  0  0  0  0  0  0999 V2000
   -5.4590    0.5889    0.0000 R   0  0  0  0  0  1  0  0  0  0  0  0
   -4.4267   -0.4993    0.0000 N   0  0  0  0  0  0  0  0  0  0  0  0
   -4.8530   -1.9375    0.0000 R   0  0  0  0  0  1  0  0  0  0  0  0
   -2.9681   -0.1495    0.0000 C   0  0  0  0  0  0  0  0  0  0  0  0
   -1.9357   -1.2377    0.0000 C   0  0  0  0  0  0  0  0  0  0  0  0
   -0.4771   -0.8879    0.0000 C   0  0  0  0  0  0  0  0  0  0  0  0
    0.5552   -1.9761    0.0000 C   0  0  0  0  0  0  0  0  0  0  0  0
    2.0138   -1.6262    0.0000 N   0  0  0  0  0  0  0  0  0  0  0  0
    3.0461   -2.7145    0.0000 R   0  0  0  0  0  1  0  0  0  0  0  0
    2.4401   -0.1881    0.0000 C   0  0  0  0  0  0  0  0  0  0  0  0
    1.4078    0.9002    0.0000 N   0  0  0  0  0  0  0  0  0  0  0  0
    1.8341    2.3383    0.0000 R   0  0  0  0  0  1  0  0  0  0  0  0
    3.8988    0.1618    0.0000 N   0  0  0  0  0  0  0  0  0  0  0  0
    4.3251    1.5999    0.0000 R   0  0  0  0  0  1  0  0  0  0  0  0
    4.9311   -0.9265    0.0000 R   0  0  0  0  0  1  0  0  0  0  0  0
   -2.5417    1.2887    0.0000 C   0  0  0  0  0  0  0  0  0  0  0  0
   -1.0831    1.6386    0.0000 C   0  0  0  0  0  0  0  0  0  0  0  0
   -0.6568    3.0767    0.0000 R   0  0  0  0  0  1  0  0  0  0  0  0
   -0.0508    0.5503    0.0000 O   0  0  0  0  0  0  0  0  0  0  0  0
  1  2  1  0
  2  3  1  0
  2  4  1  0
  4  5  1  6
  5  6  1  0
  6  7  1  0
  7  8  1  0
  8  9  1  0
  8 10  1  0
 10 11  2  3
 11 12  1  0
 10 13  1  0
 13 14  1  0
 13 15  1  0
  4 16  1  0
 16 17  1  0
 17 18  1  0
 17 19  2  0
M  ISO  7   1   1   3   3   9   7  12   4  14   5  15   6  18   2
M  END
>  <symbol>  (1013) 
b3hArg

>  <m_abbr>  (1013) 
b3hArg

>  <m_name>  (1013) 
b3hArg

>  <m_type>  (1013) 
aa

>  <m_subtype>  (1013) 
modified

>  <m_Rgroups>  (1013) 
[H],[OH],[H],[H],[H],[H],[H]

>  <m_chem_types>  (1013) 
1:backbone_n,2:backbone_c,3:backbone_n_mod,4:guanidinium_imine,5:guanidinium,6:guanidinium,7:guanidinium

>  <m_activation_policy>  (1013) 
canonical-sites-v1

$$$$

     RDKit          2D

 19 18  0  0  0  0  0  0  0  0999 V2000
   -5.4590    0.5889    0.0000 R   0  0  0  0  0  1  0  0  0  0  0  0
   -4.4267   -0.4993    0.0000 N   0  0  0  0  0  0  0  0  0  0  0  0
   -4.8530   -1.9375    0.0000 R   0  0  0  0  0  1  0  0  0  0  0  0
   -2.9681   -0.1495    0.0000 C   0  0  0  0  0  0  0  0  0  0  0  0
   -1.9357   -1.2377    0.0000 C   0  0  0  0  0  0  0  0  0  0  0  0
   -0.4771   -0.8879    0.0000 C   0  0  0  0  0  0  0  0  0  0  0  0
    0.5552   -1.9761    0.0000 C   0  0  0  0  0  0  0  0  0  0  0  0
    2.0138   -1.6262    0.0000 N   0  0  0  0  0  0  0  0  0  0  0  0
    3.0461   -2.7145    0.0000 R   0  0  0  0  0  1  0  0  0  0  0  0
    2.4401   -0.1881    0.0000 C   0  0  0  0  0  0  0  0  0  0  0  0
    1.4078    0.9002    0.0000 N   0  0  0  0  0  0  0  0  0  0  0  0
    1.8341    2.3383    0.0000 R   0  0  0  0  0  1  0  0  0  0  0  0
    3.8988    0.1618    0.0000 N   0  0  0  0  0  0  0  0  0  0  0  0
    4.3251    1.5999    0.0000 R   0  0  0  0  0  1  0  0  0  0  0  0
    4.9311   -0.9265    0.0000 R   0  0  0  0  0  1  0  0  0  0  0  0
   -2.5417    1.2887    0.0000 C   0  0  0  0  0  0  0  0  0  0  0  0
   -1.0831    1.6386    0.0000 C   0  0  0  0  0  0  0  0  0  0  0  0
   -0.6568    3.0767    0.0000 R   0  0  0  0  0  1  0  0  0  0  0  0
   -0.0508    0.5503    0.0000 O   0  0  0  0  0  0  0  0  0  0  0  0
  1  2  1  0
  2  3  1  0
  2  4  1  0
  4  5  1  1
  5  6  1  0
  6  7  1  0
  7  8  1  0
  8  9  1  0
  8 10  1  0
 10 11  2  3
 11 12  1  0
 10 13  1  0
 13 14  1  0
 13 15  1  0
  4 16  1  0
 16 17  1  0
 17 18  1  0
 17 19  2  0
M  ISO  7   1   1   3   3   9   7  12   4  14   5  15   6  18   2
M  END
>  <symbol>  (1014) 
D_b3hArg

>  <m_abbr>  (1014) 
D_b3hArg

>  <m_name>  (1014) 
D_b3hArg

>  <m_type>  (1014) 
aa

>  <m_subtype>  (1014) 
modified

>  <m_Rgroups>  (1014) 
[H],[OH],[H],[H],[H],[H],[H]

>  <m_chem_types>  (1014) 
1:backbone_n,2:backbone_c,3:backbone_n_mod,4:guanidinium_imine,5:guanidinium,6:guanidinium,7:guanidinium

>  <m_activation_policy>  (1014) 
canonical-sites-v1

$$$$

     RDKit          2D

 18 17  0  0  0  0  0  0  0  0999 V2000
   -5.3238    0.4214    0.0000 R   0  0  0  0  0  1  0  0  0  0  0  0
   -4.2440   -0.6198    0.0000 N   0  0  0  0  0  0  0  0  0  0  0  0
   -4.6058   -2.0755    0.0000 R   0  0  0  0  0  1  0  0  0  0  0  0
   -2.8025   -0.2052    0.0000 C   0  0  0  0  0  0  0  0  0  0  0  0
   -1.7226   -1.2463    0.0000 C   0  0  0  0  0  0  0  0  0  0  0  0
   -0.2811   -0.8318    0.0000 C   0  0  0  0  0  0  0  0  0  0  0  0
    0.7988   -1.8729    0.0000 C   0  0  0  0  0  0  0  0  0  0  0  0
    2.2403   -1.4583    0.0000 N   0  0  0  0  0  0  0  0  0  0  0  0
    3.3201   -2.4995    0.0000 R   0  0  0  0  0  1  0  0  0  0  0  0
    2.6021   -0.0026    0.0000 C   0  0  0  0  0  0  0  0  0  0  0  0
    1.5223    1.0385    0.0000 N   0  0  0  0  0  0  0  0  0  0  0  0
    1.8840    2.4943    0.0000 R   0  0  0  0  0  1  0  0  0  0  0  0
    4.0437    0.4120    0.0000 N   0  0  0  0  0  0  0  0  0  0  0  0
    4.4054    1.8677    0.0000 R   0  0  0  0  0  1  0  0  0  0  0  0
    5.1235   -0.6292    0.0000 R   0  0  0  0  0  1  0  0  0  0  0  0
   -2.4407    1.2505    0.0000 C   0  0  0  0  0  0  0  0  0  0  0  0
   -0.9991    1.6651    0.0000 R   0  0  0  0  0  1  0  0  0  0  0  0
   -3.5205    2.2917    0.0000 O   0  0  0  0  0  0  0  0  0  0  0  0
  1  2  1  0
  2  3  1  0
  2  4  1  0
  4  5  1  6
  5  6  1  0
  6  7  1  0
  7  8  1  0
  8  9  1  0
  8 10  1  0
 10 11  2  3
 11 12  1  0
 10 13  1  0
 13 14  1  0
 13 15  1  0
  4 16  1  0
 16 17  1  0
 16 18  2  0
M  ISO  7   1   1   3   3   9   7  12   4  14   5  15   6  17   2
M  END
>  <symbol>  (1015) 
Arg_al

>  <m_abbr>  (1015) 
Arg_al

>  <m_name>  (1015) 
Arg_al

>  <m_type>  (1015) 
aa

>  <m_subtype>  (1015) 
modified

>  <m_Rgroups>  (1015) 
[H],[H],[H],[H],[H],[H],[H]

>  <m_chem_types>  (1015) 
1:backbone_n,2:backbone_c,3:backbone_n_mod,4:guanidinium_imine,5:guanidinium,6:guanidinium,7:guanidinium

>  <m_activation_policy>  (1015) 
canonical-sites-v1

$$$$

     RDKit          2D

 18 17  0  0  0  0  0  0  0  0999 V2000
   -5.0310    0.5018    0.0000 R   0  0  0  0  0  1  0  0  0  0  0  0
   -3.9826   -0.5711    0.0000 N   0  0  0  0  0  0  0  0  0  0  0  0
   -4.3876   -2.0154    0.0000 R   0  0  0  0  0  1  0  0  0  0  0  0
   -2.5294   -0.1996    0.0000 C   0  0  0  0  0  0  0  0  0  0  0  0
   -1.4810   -1.2724    0.0000 C   0  0  0  0  0  0  0  0  0  0  0  0
   -0.0277   -0.9010    0.0000 C   0  0  0  0  0  0  0  0  0  0  0  0
    1.0206   -1.9738    0.0000 C   0  0  0  0  0  0  0  0  0  0  0  0
    2.4739   -1.6023    0.0000 N   0  0  0  0  0  0  0  0  0  0  0  0
    3.5222   -2.6752    0.0000 R   0  0  0  0  0  1  0  0  0  0  0  0
    2.8788   -0.1580    0.0000 C   0  0  0  0  0  0  0  0  0  0  0  0
    4.3321    0.2135    0.0000 N   0  0  0  0  0  0  0  0  0  0  0  0
    4.7370    1.6578    0.0000 R   0  0  0  0  0  1  0  0  0  0  0  0
    1.8305    0.9148    0.0000 N   0  0  0  0  0  0  0  0  0  0  0  0
    2.2354    2.3591    0.0000 C   0  0  0  0  0  0  0  0  0  0  0  0
    0.3772    0.5433    0.0000 C   0  0  0  0  0  0  0  0  0  0  0  0
   -2.1244    1.2447    0.0000 C   0  0  0  0  0  0  0  0  0  0  0  0
   -0.6712    1.6162    0.0000 R   0  0  0  0  0  1  0  0  0  0  0  0
   -3.1728    2.3175    0.0000 O   0  0  0  0  0  0  0  0  0  0  0  0
  1  2  1  0
  2  3  1  0
  2  4  1  0
  4  5  1  1
  5  6  1  0
  6  7  1  0
  7  8  1  0
  8  9  1  0
  8 10  1  0
 10 11  2  3
 11 12  1  0
 10 13  1  0
 13 14  1  0
 13 15  1  0
  4 16  1  0
 16 17  1  0
 16 18  2  0
M  ISO  5   1   1   3   3   9   5  12   4  17   2
M  END
>  <symbol>  (1016) 
ADMA

>  <m_abbr>  (1016) 
ADMA

>  <m_name>  (1016) 
ADMA

>  <m_type>  (1016) 
aa

>  <m_subtype>  (1016) 
modified

>  <m_Rgroups>  (1016) 
[H],[OH],[H],[H],[H]

>  <m_chem_types>  (1016) 
1:backbone_n,2:backbone_c,3:backbone_n_mod,4:guanidinium_imine,5:guanidinium

>  <m_activation_policy>  (1016) 
canonical-sites-v1

$$$$

     RDKit          2D

 18 17  0  0  0  0  0  0  0  0999 V2000
   -5.0310    0.5018    0.0000 R   0  0  0  0  0  1  0  0  0  0  0  0
   -3.9826   -0.5711    0.0000 N   0  0  0  0  0  0  0  0  0  0  0  0
   -4.3876   -2.0154    0.0000 R   0  0  0  0  0  1  0  0  0  0  0  0
   -2.5294   -0.1996    0.0000 C   0  0  0  0  0  0  0  0  0  0  0  0
   -1.4810   -1.2724    0.0000 C   0  0  0  0  0  0  0  0  0  0  0  0
   -0.0277   -0.9010    0.0000 C   0  0  0  0  0  0  0  0  0  0  0  0
    1.0206   -1.9738    0.0000 C   0  0  0  0  0  0  0  0  0  0  0  0
    2.4739   -1.6023    0.0000 N   0  0  0  0  0  0  0  0  0  0  0  0
    3.5222   -2.6752    0.0000 R   0  0  0  0  0  1  0  0  0  0  0  0
    2.8788   -0.1580    0.0000 C   0  0  0  0  0  0  0  0  0  0  0  0
    4.3321    0.2135    0.0000 N   0  0  0  0  0  0  0  0  0  0  0  0
    4.7370    1.6578    0.0000 R   0  0  0  0  0  1  0  0  0  0  0  0
    1.8305    0.9148    0.0000 N   0  0  0  0  0  0  0  0  0  0  0  0
    2.2354    2.3591    0.0000 C   0  0  0  0  0  0  0  0  0  0  0  0
    0.3772    0.5433    0.0000 C   0  0  0  0  0  0  0  0  0  0  0  0
   -2.1244    1.2447    0.0000 C   0  0  0  0  0  0  0  0  0  0  0  0
   -0.6712    1.6162    0.0000 R   0  0  0  0  0  1  0  0  0  0  0  0
   -3.1728    2.3175    0.0000 O   0  0  0  0  0  0  0  0  0  0  0  0
  1  2  1  0
  2  3  1  0
  2  4  1  0
  4  5  1  6
  5  6  1  0
  6  7  1  0
  7  8  1  0
  8  9  1  0
  8 10  1  0
 10 11  2  3
 11 12  1  0
 10 13  1  0
 13 14  1  0
 13 15  1  0
  4 16  1  0
 16 17  1  0
 16 18  2  0
M  ISO  5   1   1   3   3   9   5  12   4  17   2
M  END
>  <symbol>  (1017) 
D_ADMA

>  <m_abbr>  (1017) 
D_ADMA

>  <m_name>  (1017) 
D_ADMA

>  <m_type>  (1017) 
aa

>  <m_subtype>  (1017) 
modified

>  <m_Rgroups>  (1017) 
[H],[OH],[H],[H],[H]

>  <m_chem_types>  (1017) 
1:backbone_n,2:backbone_c,3:backbone_n_mod,4:guanidinium_imine,5:guanidinium

>  <m_activation_policy>  (1017) 
canonical-sites-v1

$$$$

     RDKit          2D

 20 19  0  0  0  0  0  0  0  0999 V2000
   -5.2252    0.7469    0.0000 R   0  0  0  0  0  1  0  0  0  0  0  0
   -4.2954   -0.4302    0.0000 N   0  0  0  0  0  0  0  0  0  0  0  0
   -4.8499   -1.8239    0.0000 R   0  0  0  0  0  1  0  0  0  0  0  0
   -2.8111   -0.2135    0.0000 C   0  0  0  0  0  0  0  0  0  0  0  0
   -1.8814   -1.3905    0.0000 C   0  0  0  0  0  0  0  0  0  0  0  0
   -0.3971   -1.1739    0.0000 C   0  0  0  0  0  0  0  0  0  0  0  0
    0.5327   -2.3509    0.0000 C   0  0  0  0  0  0  0  0  0  0  0  0
    2.0170   -2.1342    0.0000 N   0  0  0  0  0  0  0  0  0  0  0  0
    2.9468   -3.3113    0.0000 R   0  0  0  0  0  1  0  0  0  0  0  0
    2.5714   -0.7405    0.0000 C   0  0  0  0  0  0  0  0  0  0  0  0
    4.0557   -0.5238    0.0000 N   0  0  0  0  0  0  0  0  0  0  0  0
    4.6102    0.8700    0.0000 R   0  0  0  0  0  1  0  0  0  0  0  0
    1.6417    0.4366    0.0000 N   0  0  0  0  0  0  0  0  0  0  0  0
    0.1574    0.2199    0.0000 R   0  0  0  0  0  1  0  0  0  0  0  0
    2.1961    1.8303    0.0000 N   0  0  0  0  0  0  0  0  0  0  0  0
    3.6804    2.0470    0.0000 O   0  0  0  0  0  0  0  0  0  0  0  0
    1.2663    3.0074    0.0000 O   0  0  0  0  0  0  0  0  0  0  0  0
   -2.2567    1.1803    0.0000 C   0  0  0  0  0  0  0  0  0  0  0  0
   -0.7724    1.3970    0.0000 R   0  0  0  0  0  1  0  0  0  0  0  0
   -3.1865    2.3573    0.0000 O   0  0  0  0  0  0  0  0  0  0  0  0
  1  2  1  0
  2  3  1  0
  2  4  1  0
  4  5  1  1
  5  6  1  0
  6  7  1  0
  7  8  1  0
  8  9  1  0
  8 10  1  0
 10 11  2  3
 11 12  1  0
 10 13  1  0
 13 14  1  0
 13 15  1  0
 15 16  2  0
 15 17  1  0
  4 18  1  0
 18 19  1  0
 18 20  2  0
M  CHG  2  15   1  17  -1
M  ISO  6   1   1   3   3   9   5  12   4  14   6  19   2
M  END
>  <symbol>  (1018) 
ArgNO2

>  <m_abbr>  (1018) 
ArgNO2

>  <m_name>  (1018) 
ArgNO2

>  <m_type>  (1018) 
aa

>  <m_subtype>  (1018) 
modified

>  <m_Rgroups>  (1018) 
[H],[OH],[H],[H],[H],[H]

>  <m_chem_types>  (1018) 
1:backbone_n,2:backbone_c,3:backbone_n_mod,4:guanidinium_imine,5:guanidinium,6:guanidinium

>  <m_activation_policy>  (1018) 
canonical-sites-v1

$$$$

     RDKit          2D

 20 19  0  0  0  0  0  0  0  0999 V2000
   -5.2252    0.7469    0.0000 R   0  0  0  0  0  1  0  0  0  0  0  0
   -4.2954   -0.4302    0.0000 N   0  0  0  0  0  0  0  0  0  0  0  0
   -4.8499   -1.8239    0.0000 R   0  0  0  0  0  1  0  0  0  0  0  0
   -2.8111   -0.2135    0.0000 C   0  0  0  0  0  0  0  0  0  0  0  0
   -1.8814   -1.3905    0.0000 C   0  0  0  0  0  0  0  0  0  0  0  0
   -0.3971   -1.1739    0.0000 C   0  0  0  0  0  0  0  0  0  0  0  0
    0.5327   -2.3509    0.0000 C   0  0  0  0  0  0  0  0  0  0  0  0
    2.0170   -2.1342    0.0000 N   0  0  0  0  0  0  0  0  0  0  0  0
    2.9468   -3.3113    0.0000 R   0  0  0  0  0  1  0  0  0  0  0  0
    2.5714   -0.7405    0.0000 C   0  0  0  0  0  0  0  0  0  0  0  0
    4.0557   -0.5238    0.0000 N   0  0  0  0  0  0  0  0  0  0  0  0
    4.6102    0.8700    0.0000 R   0  0  0  0  0  1  0  0  0  0  0  0
    1.6417    0.4366    0.0000 N   0  0  0  0  0  0  0  0  0  0  0  0
    0.1574    0.2199    0.0000 R   0  0  0  0  0  1  0  0  0  0  0  0
    2.1961    1.8303    0.0000 N   0  0  0  0  0  0  0  0  0  0  0  0
    3.6804    2.0470    0.0000 O   0  0  0  0  0  0  0  0  0  0  0  0
    1.2663    3.0074    0.0000 O   0  0  0  0  0  0  0  0  0  0  0  0
   -2.2567    1.1803    0.0000 C   0  0  0  0  0  0  0  0  0  0  0  0
   -0.7724    1.3970    0.0000 R   0  0  0  0  0  1  0  0  0  0  0  0
   -3.1865    2.3573    0.0000 O   0  0  0  0  0  0  0  0  0  0  0  0
  1  2  1  0
  2  3  1  0
  2  4  1  0
  4  5  1  6
  5  6  1  0
  6  7  1  0
  7  8  1  0
  8  9  1  0
  8 10  1  0
 10 11  2  3
 11 12  1  0
 10 13  1  0
 13 14  1  0
 13 15  1  0
 15 16  2  0
 15 17  1  0
  4 18  1  0
 18 19  1  0
 18 20  2  0
M  CHG  2  15   1  17  -1
M  ISO  6   1   1   3   3   9   5  12   4  14   6  19   2
M  END
>  <symbol>  (1019) 
D_ArgNO2

>  <m_abbr>  (1019) 
D_ArgNO2

>  <m_name>  (1019) 
D_ArgNO2

>  <m_type>  (1019) 
aa

>  <m_subtype>  (1019) 
modified

>  <m_Rgroups>  (1019) 
[H],[OH],[H],[H],[H],[H]

>  <m_chem_types>  (1019) 
1:backbone_n,2:backbone_c,3:backbone_n_mod,4:guanidinium_imine,5:guanidinium,6:guanidinium

>  <m_activation_policy>  (1019) 
canonical-sites-v1

$$$$

     RDKit          2D

 16 15  0  0  0  0  0  0  0  0999 V2000
   -5.1587   -0.7795    0.0000 R   0  0  0  0  0  1  0  0  0  0  0  0
   -3.7186   -1.1993    0.0000 N   0  0  0  0  0  0  0  0  0  0  0  0
   -3.3622   -2.6563    0.0000 R   0  0  0  0  0  1  0  0  0  0  0  0
   -2.6350   -0.1621    0.0000 C   0  0  0  0  0  0  0  0  0  0  0  0
   -1.1950   -0.5819    0.0000 C   0  0  0  0  0  0  0  0  0  0  0  0
   -0.1114    0.4553    0.0000 C   0  0  0  0  0  0  0  0  0  0  0  0
    1.3287    0.0355    0.0000 C   0  0  0  0  0  0  0  0  0  0  0  0
    2.4123    1.0727    0.0000 C   0  0  0  0  0  0  0  0  0  0  0  0
    3.8523    0.6529    0.0000 N   0  0  0  0  0  0  0  0  0  0  0  0
    4.9359    1.6901    0.0000 R   0  0  0  0  0  1  0  0  0  0  0  0
    4.2088   -0.8041    0.0000 C   0  0  0  0  0  0  0  0  0  0  0  0
    5.6488   -1.2240    0.0000 R   0  0  0  0  0  1  0  0  0  0  0  0
    3.1252   -1.8414    0.0000 O   0  0  0  0  0  0  0  0  0  0  0  0
   -2.9915    1.2950    0.0000 C   0  0  0  0  0  0  0  0  0  0  0  0
   -1.9079    2.3322    0.0000 R   0  0  0  0  0  1  0  0  0  0  0  0
   -4.4315    1.7148    0.0000 O   0  0  0  0  0  0  0  0  0  0  0  0
  1  2  1  0
  2  3  1  0
  2  4  1  0
  4  5  1  6
  5  6  1  0
  6  7  1  0
  7  8  1  0
  8  9  1  0
  9 10  1  0
  9 11  1  0
 11 12  1  0
 11 13  2  0
  4 14  1  0
 14 15  1  0
 14 16  2  0
M  ISO  5   1   1   3   3  10   5  12   4  15   2
M  END
>  <symbol>  (1020) 
Lys_For

>  <m_abbr>  (1020) 
Lys_For

>  <m_name>  (1020) 
Lys_For

>  <m_type>  (1020) 
aa

>  <m_subtype>  (1020) 
modified

>  <m_Rgroups>  (1020) 
[H],[OH],[H],[H],[H]

>  <m_chem_types>  (1020) 
1:backbone_n,2:backbone_c,3:backbone_n_mod,4:formamide_c,5:amide_nh

>  <m_activation_policy>  (1020) 
canonical-sites-v1

$$$$

     RDKit          2D

 20 21  0  0  0  0  0  0  0  0999 V2000
   -3.7929   -2.0671    0.0000 R   0  0  0  0  0  1  0  0  0  0  0  0
   -2.5693   -1.1993    0.0000 N   0  0  0  0  0  0  0  0  0  0  0  0
   -1.2061   -1.8250    0.0000 R   0  0  0  0  0  1  0  0  0  0  0  0
   -2.7091    0.2942    0.0000 C   0  0  0  0  0  0  0  0  0  0  0  0
   -1.4856    1.1619    0.0000 C   0  0  0  0  0  0  0  0  0  0  0  0
   -0.1223    0.5362    0.0000 C   0  0  0  0  0  0  0  0  0  0  0  0
    0.1728   -0.9345    0.0000 C   0  0  0  0  0  0  0  0  0  0  0  0
    1.6627   -1.1083    0.0000 N   0  0  0  0  0  0  0  0  0  0  0  0
    2.3978   -2.4158    0.0000 C   0  0  0  0  0  0  0  0  0  0  0  0
    1.6330   -3.7062    0.0000 R   0  0  0  0  0  1  0  0  0  0  0  0
    3.8977   -2.4329    0.0000 O   0  0  0  0  0  0  0  0  0  0  0  0
    2.2884    0.2550    0.0000 C   0  0  0  0  0  0  0  0  0  0  0  0
    3.7202    0.7022    0.0000 C   0  0  0  0  0  0  0  0  0  0  0  0
    4.0487    2.1658    0.0000 C   0  0  0  0  0  0  0  0  0  0  0  0
    2.9455    3.1821    0.0000 C   0  0  0  0  0  0  0  0  0  0  0  0
    1.5138    2.7349    0.0000 C   0  0  0  0  0  0  0  0  0  0  0  0
    1.1852    1.2714    0.0000 C   0  0  0  0  0  0  0  0  0  0  0  0
   -4.0724    0.9199    0.0000 C   0  0  0  0  0  0  0  0  0  0  0  0
   -5.2959    0.0521    0.0000 R   0  0  0  0  0  1  0  0  0  0  0  0
   -4.2121    2.4133    0.0000 O   0  0  0  0  0  0  0  0  0  0  0  0
  1  2  1  0
  2  3  1  0
  2  4  1  0
  4  5  1  1
  5  6  1  0
  6  7  2  0
  7  8  1  0
  8  9  1  0
  9 10  1  0
  9 11  2  0
  8 12  1  0
 12 13  2  0
 13 14  1  0
 14 15  2  0
 15 16  1  0
 16 17  2  0
  4 18  1  0
 18 19  1  0
 18 20  2  0
 17  6  1  0
 17 12  1  0
M  ISO  4   1   1   3   3  10   4  19   2
M  END
>  <symbol>  (1021) 
D_Trp_For

>  <m_abbr>  (1021) 
D_Trp_For

>  <m_name>  (1021) 
D_Trp_For

>  <m_type>  (1021) 
aa

>  <m_subtype>  (1021) 
modified

>  <m_Rgroups>  (1021) 
[H],[OH],[H],[H]

>  <m_chem_types>  (1021) 
1:backbone_n,2:backbone_c,3:backbone_n_mod,4:formamide_c

>  <m_activation_policy>  (1021) 
canonical-sites-v1

$$$$

     RDKit          2D

 14 14  0  0  0  0  0  0  0  0999 V2000
   -4.7080    0.1465    0.0000 R   0  0  0  0  0  1  0  0  0  0  0  0
   -3.2395    0.4521    0.0000 C   0  0  0  0  0  0  0  0  0  0  0  0
   -2.7699    1.8767    0.0000 O   0  0  0  0  0  0  0  0  0  0  0  0
   -2.2405   -0.6669    0.0000 C   0  0  0  0  0  0  0  0  0  0  0  0
   -0.7720   -0.3613    0.0000 C   0  0  0  0  0  0  0  0  0  0  0  0
   -0.4924    1.1124    0.0000 C   0  0  0  0  0  0  0  0  0  0  0  0
    0.7475    1.9568    0.0000 C   0  0  0  0  0  0  0  0  0  0  0  0
    2.2212    1.6771    0.0000 C   0  0  0  0  0  0  0  0  0  0  0  0
    3.0655    0.4373    0.0000 C   0  0  0  0  0  0  0  0  0  0  0  0
    4.5340    0.7429    0.0000 R   0  0  0  0  0  1  0  0  0  0  0  0
    2.7858   -1.0364    0.0000 C   0  0  0  0  0  0  0  0  0  0  0  0
    1.5460   -1.8807    0.0000 C   0  0  0  0  0  0  0  0  0  0  0  0
    0.0723   -1.6011    0.0000 C   0  0  0  0  0  0  0  0  0  0  0  0
   -0.7500   -2.8556    0.0000 R   0  0  0  0  0  1  0  0  0  0  0  0
  1  2  1  0
  2  3  2  0
  2  4  1  0
  4  5  1  0
  5  6  1  0
  6  7  1  0
  7  8  1  0
  8  9  1  0
  9 10  1  0
  9 11  1  0
 11 12  3  0
 12 13  1  0
 13 14  1  0
 13  5  1  0
M  ISO  3   1   2  10   5  14   4
M  END
>  <symbol>  (1022) 
Cyo

>  <m_abbr>  (1022) 
Cyo

>  <m_name>  (1022) 
Cyo

>  <m_type>  (1022) 
aa

>  <m_subtype>  (1022) 
modified

>  <m_Rgroups>  (1022) 
None,[OH],None,[H],[H]

>  <m_chem_types>  (1022) 
2:backbone_c,4:cyclooctyne_c,5:cyclooctyne_c

>  <m_activation_policy>  (1022) 
canonical-sites-v1

$$$$

     RDKit          2D

 19 19  0  0  0  0  0  0  0  0999 V2000
   -4.9999   -1.4537    0.0000 R   0  0  0  0  0  1  0  0  0  0  0  0
   -3.5305   -1.1520    0.0000 N   0  0  0  0  0  0  0  0  0  0  0  0
   -2.5345   -2.2736    0.0000 R   0  0  0  0  0  1  0  0  0  0  0  0
   -3.0572    0.2714    0.0000 C   0  0  0  0  0  0  0  0  0  0  0  0
   -1.5878    0.5731    0.0000 C   0  0  0  0  0  0  0  0  0  0  0  0
   -0.5919   -0.5485    0.0000 C   0  0  0  0  0  0  0  0  0  0  0  0
    0.8775   -0.2467    0.0000 C   0  0  0  0  0  0  0  0  0  0  0  0
    1.1610    1.2262    0.0000 C   0  0  0  0  0  0  0  0  0  0  0  0
    2.4030    2.0673    0.0000 C   0  0  0  0  0  0  0  0  0  0  0  0
    3.8760    1.7838    0.0000 C   0  0  0  0  0  0  0  0  0  0  0  0
    4.7170    0.5418    0.0000 C   0  0  0  0  0  0  0  0  0  0  0  0
    6.1864    0.8435    0.0000 R   0  0  0  0  0  1  0  0  0  0  0  0
    4.4335   -0.9312    0.0000 C   0  0  0  0  0  0  0  0  0  0  0  0
    3.1915   -1.7723    0.0000 C   0  0  0  0  0  0  0  0  0  0  0  0
    1.7185   -1.4887    0.0000 C   0  0  0  0  0  0  0  0  0  0  0  0
    0.8929   -2.7411    0.0000 R   0  0  0  0  0  1  0  0  0  0  0  0
   -4.0532    1.3930    0.0000 C   0  0  0  0  0  0  0  0  0  0  0  0
   -5.5225    1.0913    0.0000 R   0  0  0  0  0  1  0  0  0  0  0  0
   -3.5798    2.8164    0.0000 O   0  0  0  0  0  0  0  0  0  0  0  0
  1  2  1  0
  2  3  1  0
  2  4  1  0
  4  5  1  6
  5  6  1  0
  6  7  1  0
  7  8  1  0
  8  9  1  0
  9 10  1  0
 10 11  1  0
 11 12  1  0
 11 13  1  0
 13 14  3  0
 14 15  1  0
 15 16  1  0
  4 17  1  0
 17 18  1  0
 17 19  2  0
 15  7  1  0
M  ISO  5   1   1   3   3  12   5  16   4  18   2
M  END
>  <symbol>  (1023) 
CyoDab

>  <m_abbr>  (1023) 
CyoDab

>  <m_name>  (1023) 
CyoDab

>  <m_type>  (1023) 
aa

>  <m_subtype>  (1023) 
modified

>  <m_Rgroups>  (1023) 
[H],[OH],[H],[H],[H]

>  <m_chem_types>  (1023) 
1:backbone_n,2:backbone_c,3:backbone_n_mod,4:cyclooctyne_c,5:cyclooctyne_c

>  <m_activation_policy>  (1023) 
canonical-sites-v1

$$$$

     RDKit          2D

 20 20  0  0  0  0  0  0  0  0999 V2000
   -4.7241    2.3681    0.0000 R   0  0  0  0  0  1  0  0  0  0  0  0
   -3.5278    1.4632    0.0000 N   0  0  0  0  0  0  0  0  0  0  0  0
   -2.1460    2.0468    0.0000 R   0  0  0  0  0  1  0  0  0  0  0  0
   -3.7133   -0.0253    0.0000 C   0  0  0  0  0  0  0  0  0  0  0  0
   -2.5170   -0.9302    0.0000 C   0  0  0  0  0  0  0  0  0  0  0  0
   -1.1352   -0.3466    0.0000 C   0  0  0  0  0  0  0  0  0  0  0  0
    0.0611   -1.2515    0.0000 C   0  0  0  0  0  0  0  0  0  0  0  0
    1.4430   -0.6679    0.0000 C   0  0  0  0  0  0  0  0  0  0  0  0
    1.4326    0.8320    0.0000 C   0  0  0  0  0  0  0  0  0  0  0  0
    2.4859    1.9000    0.0000 C   0  0  0  0  0  0  0  0  0  0  0  0
    3.9859    1.9103    0.0000 C   0  0  0  0  0  0  0  0  0  0  0  0
    5.0538    0.8570    0.0000 C   0  0  0  0  0  0  0  0  0  0  0  0
    6.4357    1.4406    0.0000 R   0  0  0  0  0  1  0  0  0  0  0  0
    5.0642   -0.6429    0.0000 C   0  0  0  0  0  0  0  0  0  0  0  0
    4.0109   -1.7109    0.0000 C   0  0  0  0  0  0  0  0  0  0  0  0
    2.5109   -1.7212    0.0000 C   0  0  0  0  0  0  0  0  0  0  0  0
    1.9465   -3.1110    0.0000 R   0  0  0  0  0  1  0  0  0  0  0  0
   -5.0951   -0.6089    0.0000 C   0  0  0  0  0  0  0  0  0  0  0  0
   -6.2914    0.2960    0.0000 R   0  0  0  0  0  1  0  0  0  0  0  0
   -5.2806   -2.0974    0.0000 O   0  0  0  0  0  0  0  0  0  0  0  0
  1  2  1  0
  2  3  1  0
  2  4  1  0
  4  5  1  1
  5  6  1  0
  6  7  1  0
  7  8  1  0
  8  9  1  0
  9 10  1  0
 10 11  1  0
 11 12  1  0
 12 13  1  0
 12 14  1  0
 14 15  3  0
 15 16  1  0
 16 17  1  0
  4 18  1  0
 18 19  1  0
 18 20  2  0
 16  8  1  0
M  ISO  5   1   1   3   3  13   5  17   4  19   2
M  END
>  <symbol>  (1024) 
CyoOrn

>  <m_abbr>  (1024) 
CyoOrn

>  <m_name>  (1024) 
CyoOrn

>  <m_type>  (1024) 
aa

>  <m_subtype>  (1024) 
modified

>  <m_Rgroups>  (1024) 
[H],[OH],[H],[H],[H]

>  <m_chem_types>  (1024) 
1:backbone_n,2:backbone_c,3:backbone_n_mod,4:cyclooctyne_c,5:cyclooctyne_c

>  <m_activation_policy>  (1024) 
canonical-sites-v1

$$$$

     RDKit          2D

 19 18  0  0  0  0  0  0  0  0999 V2000
   -5.9368   -1.0534    0.0000 R   0  0  0  0  0  1  0  0  0  0  0  0
   -4.4620   -1.3273    0.0000 N   0  0  0  0  0  0  0  0  0  0  0  0
   -3.9617   -2.7414    0.0000 R   0  0  0  0  0  1  0  0  0  0  0  0
   -3.4875   -0.1870    0.0000 C   0  0  0  0  0  0  0  0  0  0  0  0
   -2.0127   -0.4608    0.0000 C   0  0  0  0  0  0  0  0  0  0  0  0
   -1.0381    0.6795    0.0000 C   0  0  0  0  0  0  0  0  0  0  0  0
    0.4367    0.4057    0.0000 C   0  0  0  0  0  0  0  0  0  0  0  0
    1.4112    1.5460    0.0000 C   0  0  0  0  0  0  0  0  0  0  0  0
    2.8860    1.2722    0.0000 N   0  0  0  0  0  0  0  0  0  0  0  0
    3.8605    2.4125    0.0000 R   0  0  0  0  0  1  0  0  0  0  0  0
    3.3863   -0.1419    0.0000 C   0  0  0  0  0  0  0  0  0  0  0  0
    2.4117   -1.2822    0.0000 N   0  0  0  0  0  0  0  0  0  0  0  0
    2.9120   -2.6964    0.0000 R   0  0  0  0  0  1  0  0  0  0  0  0
    4.8610   -0.4158    0.0000 N   0  0  0  0  0  0  0  0  0  0  0  0
    5.3613   -1.8299    0.0000 R   0  0  0  0  0  1  0  0  0  0  0  0
    5.8356    0.7245    0.0000 R   0  0  0  0  0  1  0  0  0  0  0  0
   -3.9877    1.2272    0.0000 C   0  0  0  0  0  0  0  0  0  0  0  0
   -3.0132    2.3675    0.0000 R   0  0  0  0  0  1  0  0  0  0  0  0
   -5.4625    1.5010    0.0000 O   0  0  0  0  0  0  0  0  0  0  0  0
  1  2  1  0
  2  3  1  0
  2  4  1  0
  4  5  1  1
  5  6  1  0
  6  7  1  0
  7  8  1  0
  8  9  1  0
  9 10  1  0
  9 11  1  0
 11 12  2  3
 12 13  1  0
 11 14  1  0
 14 15  1  0
 14 16  1  0
  4 17  1  0
 17 18  1  0
 17 19  2  0
M  ISO  7   1   1   3   3  10   7  13   4  15   5  16   6  18   2
M  END
>  <symbol>  (1025) 
D_hArg

>  <m_abbr>  (1025) 
D_hArg

>  <m_name>  (1025) 
D_hArg

>  <m_type>  (1025) 
aa

>  <m_subtype>  (1025) 
modified

>  <m_Rgroups>  (1025) 
[H],[OH],[H],[H],[H],[H],[H]

>  <m_chem_types>  (1025) 
1:backbone_n,2:backbone_c,3:backbone_n_mod,4:guanidinium_imine,5:guanidinium,6:guanidinium,7:guanidinium

>  <m_activation_policy>  (1025) 
canonical-sites-v1

$$$$

     RDKit          2D

 35 40  0  0  0  0  0  0  0  0999 V2000
    8.0481   -2.5683    0.0000 R   0  0  0  0  0  1  0  0  0  0  0  0
    7.4934   -1.1747    0.0000 O   0  0  0  0  0  0  0  0  0  0  0  0
    6.0091   -0.9583    0.0000 C   0  0  0  0  0  0  0  0  0  0  0  0
    5.0795   -2.1355    0.0000 C   0  0  0  0  0  0  0  0  0  0  0  0
    3.5952   -1.9192    0.0000 C   0  0  0  0  0  0  0  0  0  0  0  0
    3.0404   -0.5255    0.0000 C   0  0  0  0  0  0  0  0  0  0  0  0
    3.9700    0.6517    0.0000 C   0  0  0  0  0  0  0  0  0  0  0  0
    5.4543    0.4354    0.0000 C   0  0  0  0  0  0  0  0  0  0  0  0
    3.4152    2.0454    0.0000 O   0  0  0  0  0  0  0  0  0  0  0  0
    1.9309    2.2618    0.0000 C   0  0  0  0  0  0  0  0  0  0  0  0
    1.3762    3.6554    0.0000 C   0  0  0  0  0  0  0  0  0  0  0  0
   -0.1081    3.8718    0.0000 C   0  0  0  0  0  0  0  0  0  0  0  0
   -0.6629    5.2654    0.0000 O   0  0  0  0  0  0  0  0  0  0  0  0
    0.2666    6.4427    0.0000 R   0  0  0  0  0  1  0  0  0  0  0  0
   -1.0377    2.6945    0.0000 C   0  0  0  0  0  0  0  0  0  0  0  0
   -0.4829    1.3009    0.0000 C   0  0  0  0  0  0  0  0  0  0  0  0
    1.0014    1.0845    0.0000 C   0  0  0  0  0  0  0  0  0  0  0  0
    1.5561   -0.3091    0.0000 C   0  0  0  0  0  0  0  0  0  0  0  0
    1.9622   -1.7531    0.0000 O   0  0  0  0  0  0  0  0  0  0  0  0
    0.7143   -2.5855    0.0000 C   0  0  0  0  0  0  0  0  0  0  0  0
    0.6543   -4.0843    0.0000 O   0  0  0  0  0  0  0  0  0  0  0  0
   -0.4629   -1.6560    0.0000 C   0  0  0  0  0  0  0  0  0  0  0  0
   -1.6987   -1.2523    0.0000 C   0  0  0  0  0  0  0  0  0  0  0  0
   -2.2098   -0.6368    0.0000 C   0  0  0  0  0  0  0  0  0  0  0  0
   -4.3783   -1.0077    0.0000 N   0  0  0  0  0  0  0  0  0  0  0  0
   -5.0427   -2.3525    0.0000 C   0  0  0  0  0  0  0  0  0  0  0  0
   -4.3453   -3.6805    0.0000 O   0  0  0  0  0  0  0  0  0  0  0  0
   -6.5270   -2.1361    0.0000 C   0  0  0  0  0  0  0  0  0  0  0  0
   -6.7799   -0.6576    0.0000 C   0  0  0  0  0  0  0  0  0  0  0  0
   -8.1247    0.0069    0.0000 R   0  0  0  0  0  1  0  0  0  0  0  0
   -5.4519    0.0398    0.0000 C   0  0  0  0  0  0  0  0  0  0  0  0
   -5.2355    1.5241    0.0000 O   0  0  0  0  0  0  0  0  0  0  0  0
   -1.9323    0.1135    0.0000 C   0  0  0  0  0  0  0  0  0  0  0  0
   -1.1437    0.2484    0.0000 C   0  0  0  0  0  0  0  0  0  0  0  0
    0.0573   -0.2491    0.0000 C   0  0  0  0  0  0  0  0  0  0  0  0
  1  2  1  0
  2  3  1  0
  3  4  1  0
  4  5  2  0
  5  6  1  0
  6  7  2  0
  7  8  1  0
  7  9  1  0
  9 10  1  0
 10 11  1  0
 11 12  2  0
 12 13  1  0
 13 14  1  0
 12 15  1  0
 15 16  2  0
 16 17  1  0
 17 18  1  0
 18 19  1  0
 19 20  1  0
 20 21  2  0
 20 22  1  0
 22 23  1  0
 23 24  2  0
 24 25  1  0
 25 26  1  0
 26 27  2  0
 26 28  1  0
 28 29  2  0
 29 30  1  0
 29 31  1  0
 31 32  2  0
 24 33  1  0
 33 34  2  0
 34 35  1  0
  8  3  2  0
 17 10  2  0
 35 18  1  0
 18  6  1  0
 35 22  2  0
 31 25  1  0
M  ISO  3   1   4  14   5  30   6
M  END
>  <symbol>  (1026) 
5FM

>  <m_abbr>  (1026) 
5FM

>  <m_name>  (1026) 
Fluorescein-5-maleimide

>  <m_type>  (1026) 
linker

>  <m_subtype>  (1026) 
dye

>  <m_Rgroups>  (1026) 
None,None,None,[H],[H],[H]

>  <m_chem_types>  (1026) 
4:aryl_phenol_o,5:aryl_phenol_o,6:maleimide_c

>  <m_activation_policy>  (1026) 
canonical-sites-v1

$$$$

     RDKit          2D

 37 41  0  0  0  0  0  0  0  0999 V2000
   -8.4975    0.7067    0.0000 R   0  0  0  0  0  1  0  0  0  0  0  0
   -7.2217   -0.0823    0.0000 C   0  0  0  0  0  0  0  0  0  0  0  0
   -7.1102   -1.5782    0.0000 C   0  0  0  0  0  0  0  0  0  0  0  0
   -5.6531   -1.9343    0.0000 C   0  0  0  0  0  0  0  0  0  0  0  0
   -5.0848   -3.3225    0.0000 O   0  0  0  0  0  0  0  0  0  0  0  0
   -4.8641   -0.6586    0.0000 N   0  0  0  0  0  0  0  0  0  0  0  0
   -3.3683   -0.5471    0.0000 C   0  0  0  0  0  0  0  0  0  0  0  0
   -2.5237   -1.7867    0.0000 C   0  0  0  0  0  0  0  0  0  0  0  0
   -1.0279   -1.6752    0.0000 C   0  0  0  0  0  0  0  0  0  0  0  0
   -0.3766   -0.3240    0.0000 C   0  0  0  0  0  0  0  0  0  0  0  0
    1.1193   -0.2124    0.0000 C   0  0  0  0  0  0  0  0  0  0  0  0
    1.9638   -1.4521    0.0000 C   0  0  0  0  0  0  0  0  0  0  0  0
    1.3125   -2.8033    0.0000 C   0  0  0  0  0  0  0  0  0  0  0  0
    2.1570   -4.0430    0.0000 C   0  0  0  0  0  0  0  0  0  0  0  0
    3.6529   -3.9314    0.0000 C   0  0  0  0  0  0  0  0  0  0  0  0
    4.4974   -5.1711    0.0000 N   0  0  0  0  0  0  0  0  0  0  0  0
    3.8460   -6.5223    0.0000 C   0  0  0  0  0  0  0  0  0  0  0  0
    5.9932   -5.0596    0.0000 C   0  0  0  0  0  0  0  0  0  0  0  0
    4.3042   -2.5802    0.0000 C   0  0  0  0  0  0  0  0  0  0  0  0
    3.4597   -1.3406    0.0000 C   0  0  0  0  0  0  0  0  0  0  0  0
    4.1110    0.0107    0.0000 O   0  0  0  0  0  0  0  0  0  0  0  0
    3.2665    1.2503    0.0000 C   0  0  0  0  0  0  0  0  0  0  0  0
    3.9178    2.6015    0.0000 C   0  0  0  0  0  0  0  0  0  0  0  0
    3.0733    3.8412    0.0000 C   0  0  0  0  0  0  0  0  0  0  0  0
    3.7246    5.1924    0.0000 N   0  0  0  0  0  0  0  0  0  0  0  0
    5.2204    5.3040    0.0000 C   0  0  0  0  0  0  0  0  0  0  0  0
    2.8801    6.4321    0.0000 C   0  0  0  0  0  0  0  0  0  0  0  0
    1.5774    3.7297    0.0000 C   0  0  0  0  0  0  0  0  0  0  0  0
    0.9261    2.3784    0.0000 C   0  0  0  0  0  0  0  0  0  0  0  0
    1.7706    1.1388    0.0000 C   0  0  0  0  0  0  0  0  0  0  0  0
   -1.2211    0.9157    0.0000 C   0  0  0  0  0  0  0  0  0  0  0  0
   -0.5698    2.2669    0.0000 C   0  0  0  0  0  0  0  0  0  0  0  0
   -1.4143    3.5066    0.0000 R   0  0  0  0  0  1  0  0  0  0  0  0
    0.1872    2.5168    0.0000 O   0  0  0  0  0  0  0  0  0  0  0  0
   -2.7169    0.8042    0.0000 C   0  0  0  0  0  0  0  0  0  0  0  0
   -5.8336    0.4860    0.0000 C   0  0  0  0  0  0  0  0  0  0  0  0
   -5.4774    1.9431    0.0000 O   0  0  0  0  0  0  0  0  0  0  0  0
  1  2  1  0
  2  3  2  0
  3  4  1  0
  4  5  2  0
  4  6  1  0
  6  7  1  0
  7  8  1  0
  8  9  2  0
  9 10  1  0
 10 11  1  0
 11 12  2  0
 12 13  1  0
 13 14  1  0
 14 15  2  0
 15 16  1  0
 16 17  1  0
 16 18  1  0
 15 19  1  0
 19 20  2  0
 20 21  1  0
 21 22  1  0
 22 23  1  0
 23 24  2  0
 24 25  1  0
 25 26  1  0
 25 27  1  0
 24 28  1  0
 28 29  2  0
 29 30  1  0
 10 31  2  0
 31 32  1  0
 32 33  1  0
 32 34  2  0
 31 35  1  0
  6 36  1  0
 36 37  2  0
 36  2  1  0
 35  7  2  0
 30 11  1  0
 20 12  1  0
 30 22  2  0
M  ISO  2   1   4  33   5
M  END
>  <symbol>  (1027) 
TAMRA5

>  <m_abbr>  (1027) 
TAMRA5

>  <m_name>  (1027) 
5-TAMRA maleimide

>  <m_type>  (1027) 
linker

>  <m_subtype>  (1027) 
dye

>  <m_Rgroups>  (1027) 
None,None,None,[H],[OH]

>  <m_chem_types>  (1027) 
4:maleimide_c,5:aryl_amide_c

>  <m_activation_policy>  (1027) 
canonical-sites-v1

$$$$

     RDKit          2D

 47 51  0  0  0  0  0  0  0  0999 V2000
    2.8073   -7.1477    0.0000 R   0  0  0  0  0  1  0  0  0  0  0  0
    2.2969   -5.7372    0.0000 N   0  0  0  0  0  0  0  0  0  0  0  0
    3.2633   -4.5899    0.0000 C   0  0  0  0  0  0  0  0  0  0  0  0
    4.7400   -4.8532    0.0000 C   0  0  0  0  0  0  0  0  0  0  0  0
    5.7063   -3.7060    0.0000 N   0  0  0  0  0  0  0  0  0  0  0  0
    5.3462   -2.2498    0.0000 C   0  0  0  0  0  0  0  0  0  0  0  0
    3.9565   -1.6853    0.0000 O   0  0  0  0  0  0  0  0  0  0  0  0
    6.6198   -1.4573    0.0000 C   0  0  0  0  0  0  0  0  0  0  0  0
    7.7670   -2.4237    0.0000 C   0  0  0  0  0  0  0  0  0  0  0  0
    9.2231   -2.0636    0.0000 R   0  0  0  0  0  1  0  0  0  0  0  0
    7.2025   -3.8134    0.0000 C   0  0  0  0  0  0  0  0  0  0  0  0
    7.9950   -5.0870    0.0000 O   0  0  0  0  0  0  0  0  0  0  0  0
    0.8202   -5.4739    0.0000 C   0  0  0  0  0  0  0  0  0  0  0  0
   -0.1461   -6.6212    0.0000 O   0  0  0  0  0  0  0  0  0  0  0  0
    0.3098   -4.0634    0.0000 C   0  0  0  0  0  0  0  0  0  0  0  0
   -1.1669   -3.8002    0.0000 C   0  0  0  0  0  0  0  0  0  0  0  0
   -1.6773   -2.3897    0.0000 C   0  0  0  0  0  0  0  0  0  0  0  0
   -3.1540   -2.1264    0.0000 C   0  0  0  0  0  0  0  0  0  0  0  0
   -3.6644   -0.7159    0.0000 C   0  0  0  0  0  0  0  0  0  0  0  0
   -5.1411   -0.4527    0.0000 N   0  0  0  0  0  0  0  0  0  0  0  0
   -5.7961    0.8968    0.0000 C   0  0  0  0  0  0  0  0  0  0  0  0
   -5.0894    2.2199    0.0000 C   0  0  0  0  0  0  0  0  0  0  0  0
   -3.5902    2.2694    0.0000 C   0  0  0  0  0  0  0  0  0  0  0  0
   -2.8835    3.5925    0.0000 C   0  0  0  0  0  0  0  0  0  0  0  0
   -1.3843    3.6420    0.0000 C   0  0  0  0  0  0  0  0  0  0  0  0
   -0.6776    4.9651    0.0000 C   0  0  0  0  0  0  0  0  0  0  0  0
    0.8216    5.0146    0.0000 C   0  0  0  0  0  0  0  0  0  0  0  0
    1.7428    3.8309    0.0000 N   0  0  0  0  0  0  0  0  0  0  0  0
    1.3267    2.3897    0.0000 C   0  0  0  0  0  0  0  0  0  0  0  0
    3.1533    4.3412    0.0000 C   0  0  0  0  0  0  0  0  0  0  0  0
    4.4764    3.6345    0.0000 C   0  0  0  0  0  0  0  0  0  0  0  0
    5.7500    4.4270    0.0000 C   0  0  0  0  0  0  0  0  0  0  0  0
    5.7005    5.9262    0.0000 C   0  0  0  0  0  0  0  0  0  0  0  0
    4.3774    6.6329    0.0000 C   0  0  0  0  0  0  0  0  0  0  0  0
    3.1038    5.8404    0.0000 C   0  0  0  0  0  0  0  0  0  0  0  0
    1.6627    6.2566    0.0000 C   0  0  0  0  0  0  0  0  0  0  0  0
    2.2272    7.6463    0.0000 C   0  0  0  0  0  0  0  0  0  0  0  0
    0.3396    6.9633    0.0000 C   0  0  0  0  0  0  0  0  0  0  0  0
   -7.2819    0.6908    0.0000 C   0  0  0  0  0  0  0  0  0  0  0  0
   -7.3314    2.1900    0.0000 C   0  0  0  0  0  0  0  0  0  0  0  0
   -8.7780    0.7983    0.0000 C   0  0  0  0  0  0  0  0  0  0  0  0
   -7.5451   -0.7859    0.0000 C   0  0  0  0  0  0  0  0  0  0  0  0
   -8.8187   -1.5784    0.0000 C   0  0  0  0  0  0  0  0  0  0  0  0
   -8.7692   -3.0776    0.0000 C   0  0  0  0  0  0  0  0  0  0  0  0
   -7.4461   -3.7843    0.0000 C   0  0  0  0  0  0  0  0  0  0  0  0
   -6.1725   -2.9918    0.0000 C   0  0  0  0  0  0  0  0  0  0  0  0
   -6.2220   -1.4926    0.0000 C   0  0  0  0  0  0  0  0  0  0  0  0
  1  2  1  0
  2  3  1  0
  3  4  1  0
  4  5  1  0
  5  6  1  0
  6  7  2  0
  6  8  1  0
  8  9  2  0
  9 10  1  0
  9 11  1  0
 11 12  2  0
  2 13  1  0
 13 14  2  0
 13 15  1  0
 15 16  1  0
 16 17  1  0
 17 18  1  0
 18 19  1  0
 19 20  1  0
 20 21  1  0
 21 22  2  3
 22 23  1  0
 23 24  2  3
 24 25  1  0
 25 26  2  3
 26 27  1  0
 27 28  2  0
 28 29  1  0
 28 30  1  0
 30 31  2  0
 31 32  1  0
 32 33  2  0
 33 34  1  0
 34 35  2  0
 35 36  1  0
 36 37  1  0
 36 38  1  0
 21 39  1  0
 39 40  1  0
 39 41  1  0
 39 42  1  0
 42 43  2  0
 43 44  1  0
 44 45  2  0
 45 46  1  0
 46 47  2  0
 11  5  1  0
 47 20  1  0
 36 27  1  0
 47 42  1  0
 35 30  1  0
M  CHG  1  28   1
M  ISO  2   1   4  10   5
M  END
>  <symbol>  (1028) 
Cy5Mal

>  <m_abbr>  (1028) 
Cy5Mal

>  <m_name>  (1028) 
Cyanine5 maleimide

>  <m_type>  (1028) 
linker

>  <m_subtype>  (1028) 
dye

>  <m_Rgroups>  (1028) 
None,None,None,[H],[H]

>  <m_chem_types>  (1028) 
4:amide_nh,5:maleimide_c

>  <m_activation_policy>  (1028) 
canonical-sites-v1

$$$$

     RDKit          2D

 52 56  0  0  0  0  0  0  0  0999 V2000
    8.4201   -3.0026    0.0000 R   0  0  0  0  0  1  0  0  0  0  0  0
    7.9799   -1.5687    0.0000 N   0  0  0  0  0  0  0  0  0  0  0  0
    9.0016   -0.4705    0.0000 R   0  0  0  0  0  1  0  0  0  0  0  0
    6.5180   -1.2329    0.0000 C   0  0  0  0  0  0  0  0  0  0  0  0
    5.4962   -2.3311    0.0000 C   0  0  0  0  0  0  0  0  0  0  0  0
    4.0343   -1.9953    0.0000 C   0  0  0  0  0  0  0  0  0  0  0  0
    3.5941   -0.5614    0.0000 C   0  0  0  0  0  0  0  0  0  0  0  0
    2.1321   -0.2256    0.0000 C   0  0  0  0  0  0  0  0  0  0  0  0
    1.1104   -1.3238    0.0000 C   0  0  0  0  0  0  0  0  0  0  0  0
   -0.3515   -0.9880    0.0000 C   0  0  0  0  0  0  0  0  0  0  0  0
   -1.3733   -2.0862    0.0000 C   0  0  0  0  0  0  0  0  0  0  0  0
   -0.9331   -3.5202    0.0000 C   0  0  0  0  0  0  0  0  0  0  0  0
   -1.9549   -4.6184    0.0000 C   0  0  0  0  0  0  0  0  0  0  0  0
   -1.5147   -6.0523    0.0000 O   0  0  0  0  0  0  0  0  0  0  0  0
   -3.4168   -4.2826    0.0000 N   0  0  0  0  0  0  0  0  0  0  0  0
   -4.4385   -5.3808    0.0000 R   0  0  0  0  0  1  0  0  0  0  0  0
   -3.8570   -2.8487    0.0000 C   0  0  0  0  0  0  0  0  0  0  0  0
   -5.3189   -2.5129    0.0000 C   0  0  0  0  0  0  0  0  0  0  0  0
   -5.7591   -1.0789    0.0000 C   0  0  0  0  0  0  0  0  0  0  0  0
   -7.2210   -0.7432    0.0000 C   0  0  0  0  0  0  0  0  0  0  0  0
   -7.6612    0.6908    0.0000 C   0  0  0  0  0  0  0  0  0  0  0  0
   -9.1232    1.0265    0.0000 N   0  0  0  0  0  0  0  0  0  0  0  0
  -10.2541    0.0412    0.0000 C   0  0  0  0  0  0  0  0  0  0  0  0
  -10.1217   -1.4530    0.0000 O   0  0  0  0  0  0  0  0  0  0  0  0
  -11.5407    0.8123    0.0000 C   0  0  0  0  0  0  0  0  0  0  0  0
  -11.2050    2.2742    0.0000 C   0  0  0  0  0  0  0  0  0  0  0  0
  -12.1904    3.4051    0.0000 R   0  0  0  0  0  1  0  0  0  0  0  0
   -9.7108    2.4066    0.0000 C   0  0  0  0  0  0  0  0  0  0  0  0
   -8.9397    3.6933    0.0000 O   0  0  0  0  0  0  0  0  0  0  0  0
    0.5288   -3.8560    0.0000 C   0  0  0  0  0  0  0  0  0  0  0  0
    1.5506   -2.7578    0.0000 C   0  0  0  0  0  0  0  0  0  0  0  0
    3.0125   -3.0935    0.0000 C   0  0  0  0  0  0  0  0  0  0  0  0
    3.4527   -4.5275    0.0000 R   0  0  0  0  0  1  0  0  0  0  0  0
    3.6806   -2.6586    0.0000 O   0  0  0  0  0  0  0  0  0  0  0  0
    1.6920    1.2083    0.0000 C   0  0  0  0  0  0  0  0  0  0  0  0
    0.2300    1.5441    0.0000 C   0  0  0  0  0  0  0  0  0  0  0  0
   -0.2102    2.9781    0.0000 C   0  0  0  0  0  0  0  0  0  0  0  0
    0.8116    4.0763    0.0000 C   0  0  0  0  0  0  0  0  0  0  0  0
    0.3714    5.5102    0.0000 N   0  0  0  0  0  0  0  0  0  0  0  0
    2.2735    3.7405    0.0000 C   0  0  0  0  0  0  0  0  0  0  0  0
    3.2953    4.8387    0.0000 S   0  0  0  0  0  0  0  0  0  0  0  0
    4.3935    3.8169    0.0000 O   0  0  0  0  0  0  0  0  0  0  0  0
    2.1971    5.8604    0.0000 O   0  0  0  0  0  0  0  0  0  0  0  0
    4.3170    5.9369    0.0000 O   0  0  0  0  0  0  0  0  0  0  0  0
    2.7137    2.3065    0.0000 C   0  0  0  0  0  0  0  0  0  0  0  0
    4.1756    1.9708    0.0000 O   0  0  0  0  0  0  0  0  0  0  0  0
    4.6158    0.5368    0.0000 C   0  0  0  0  0  0  0  0  0  0  0  0
    6.0778    0.2010    0.0000 C   0  0  0  0  0  0  0  0  0  0  0  0
    7.0995    1.2992    0.0000 S   0  0  0  0  0  0  0  0  0  0  0  0
    8.1977    0.2775    0.0000 O   0  0  0  0  0  0  0  0  0  0  0  0
    6.0013    2.3210    0.0000 O   0  0  0  0  0  0  0  0  0  0  0  0
    8.1213    2.3974    0.0000 O   0  0  0  0  0  0  0  0  0  0  0  0
  1  2  1  0
  2  3  1  0
  2  4  1  0
  4  5  4  0
  5  6  4  0
  6  7  4  0
  7  8  4  0
  8  9  1  0
  9 10  4  0
 10 11  4  0
 11 12  4  0
 12 13  1  0
 13 14  2  0
 13 15  1  0
 15 16  1  0
 15 17  1  0
 17 18  1  0
 18 19  1  0
 19 20  1  0
 20 21  1  0
 21 22  1  0
 22 23  1  0
 23 24  2  0
 23 25  1  0
 25 26  2  0
 26 27  1  0
 26 28  1  0
 28 29  2  0
 12 30  4  0
 30 31  4  0
 31 32  1  0
 32 33  1  0
 32 34  2  0
  8 35  4  0
 35 36  4  0
 36 37  4  0
 37 38  4  0
 38 39  2  0
 38 40  4  0
 40 41  1  0
 41 42  2  0
 41 43  2  0
 41 44  1  0
 40 45  4  0
 45 46  4  0
 46 47  4  0
 47 48  4  0
 48 49  1  0
 49 50  2  0
 49 51  2  0
 49 52  1  0
 48  4  4  0
 47  7  4  0
 31  9  4  0
 45 35  1  0
 28 22  1  0
M  CHG  2  39   1  52  -1
M  ISO  5   1   4   3   5  16   6  27   7  33   8
M  END
>  <symbol>
AZDye488

>  <m_abbr>
AZDye488

>  <m_name>
AZDye 488 maleimide

>  <m_type>
linker

>  <m_subtype>
dye

>  <m_Rgroups>
None,None,None,[H],[H],[H],[H],[OH]

>  <m_chem_types>
4:amine_primary,5:amine_primary,6:amide_nh,7:maleimide_c,8:aryl_amide_c

>  <m_activation_policy>
canonical-sites-v1

$$$$

     RDKit          2D

 45 49  0  0  0  0  0  0  0  0999 V2000
    4.9316   -5.5076    0.0000 R   0  0  0  0  0  1  0  0  0  0  0  0
    4.0757   -4.2757    0.0000 N   0  0  0  0  0  0  0  0  0  0  0  0
    4.7146   -2.9186    0.0000 C   0  0  0  0  0  0  0  0  0  0  0  0
    6.2093   -2.7933    0.0000 C   0  0  0  0  0  0  0  0  0  0  0  0
    6.8482   -1.4362    0.0000 N   0  0  0  0  0  0  0  0  0  0  0  0
    6.1258   -0.1216    0.0000 C   0  0  0  0  0  0  0  0  0  0  0  0
    4.6377    0.0666    0.0000 O   0  0  0  0  0  0  0  0  0  0  0  0
    7.1528    0.9717    0.0000 C   0  0  0  0  0  0  0  0  0  0  0  0
    8.5099    0.3328    0.0000 C   0  0  0  0  0  0  0  0  0  0  0  0
    9.8245    1.0552    0.0000 R   0  0  0  0  0  1  0  0  0  0  0  0
    8.3217   -1.1554    0.0000 C   0  0  0  0  0  0  0  0  0  0  0  0
    9.4150   -2.1824    0.0000 O   0  0  0  0  0  0  0  0  0  0  0  0
    2.5809   -4.4010    0.0000 C   0  0  0  0  0  0  0  0  0  0  0  0
    1.9420   -5.7582    0.0000 O   0  0  0  0  0  0  0  0  0  0  0  0
    1.7251   -3.1692    0.0000 C   0  0  0  0  0  0  0  0  0  0  0  0
    0.2303   -3.2944    0.0000 C   0  0  0  0  0  0  0  0  0  0  0  0
   -0.6256   -2.0626    0.0000 C   0  0  0  0  0  0  0  0  0  0  0  0
   -2.1203   -2.1878    0.0000 C   0  0  0  0  0  0  0  0  0  0  0  0
   -2.9762   -0.9560    0.0000 C   0  0  0  0  0  0  0  0  0  0  0  0
   -4.4710   -1.0812    0.0000 N   0  0  0  0  0  0  0  0  0  0  0  0
   -5.4509    0.0544    0.0000 C   0  0  0  0  0  0  0  0  0  0  0  0
   -5.1081    1.5147    0.0000 C   0  0  0  0  0  0  0  0  0  0  0  0
   -3.6721    1.9480    0.0000 C   0  0  0  0  0  0  0  0  0  0  0  0
   -3.3293    3.4083    0.0000 C   0  0  0  0  0  0  0  0  0  0  0  0
   -1.8933    3.8417    0.0000 C   0  0  0  0  0  0  0  0  0  0  0  0
   -0.6986    2.9346    0.0000 N   0  0  0  0  0  0  0  0  0  0  0  0
   -0.7303    1.4349    0.0000 C   0  0  0  0  0  0  0  0  0  0  0  0
    0.5332    3.7904    0.0000 C   0  0  0  0  0  0  0  0  0  0  0  0
    1.9935    3.4477    0.0000 C   0  0  0  0  0  0  0  0  0  0  0  0
    3.0205    4.5410    0.0000 C   0  0  0  0  0  0  0  0  0  0  0  0
    2.5872    5.9770    0.0000 C   0  0  0  0  0  0  0  0  0  0  0  0
    1.1269    6.3198    0.0000 C   0  0  0  0  0  0  0  0  0  0  0  0
    0.0999    5.2265    0.0000 C   0  0  0  0  0  0  0  0  0  0  0  0
   -1.3997    5.2581    0.0000 C   0  0  0  0  0  0  0  0  0  0  0  0
   -1.2115    6.7463    0.0000 C   0  0  0  0  0  0  0  0  0  0  0  0
   -2.8601    5.6009    0.0000 C   0  0  0  0  0  0  0  0  0  0  0  0
   -6.8338   -0.5266    0.0000 C   0  0  0  0  0  0  0  0  0  0  0  0
   -7.2671    0.9094    0.0000 C   0  0  0  0  0  0  0  0  0  0  0  0
   -8.3073   -0.8075    0.0000 C   0  0  0  0  0  0  0  0  0  0  0  0
   -6.7085   -2.0214    0.0000 C   0  0  0  0  0  0  0  0  0  0  0  0
   -7.7355   -3.1147    0.0000 C   0  0  0  0  0  0  0  0  0  0  0  0
   -7.3022   -4.5507    0.0000 C   0  0  0  0  0  0  0  0  0  0  0  0
   -5.8419   -4.8935    0.0000 C   0  0  0  0  0  0  0  0  0  0  0  0
   -4.8149   -3.8002    0.0000 C   0  0  0  0  0  0  0  0  0  0  0  0
   -5.2482   -2.3642    0.0000 C   0  0  0  0  0  0  0  0  0  0  0  0
  1  2  1  0
  2  3  1  0
  3  4  1  0
  4  5  1  0
  5  6  1  0
  6  7  2  0
  6  8  1  0
  8  9  2  0
  9 10  1  0
  9 11  1  0
 11 12  2  0
  2 13  1  0
 13 14  2  0
 13 15  1  0
 15 16  1  0
 16 17  1  0
 17 18  1  0
 18 19  1  0
 19 20  1  0
 20 21  1  0
 21 22  2  3
 22 23  1  0
 23 24  2  3
 24 25  1  0
 25 26  2  0
 26 27  1  0
 26 28  1  0
 28 29  2  0
 29 30  1  0
 30 31  2  0
 31 32  1  0
 32 33  2  0
 33 34  1  0
 34 35  1  0
 34 36  1  0
 21 37  1  0
 37 38  1  0
 37 39  1  0
 37 40  1  0
 40 41  2  0
 41 42  1  0
 42 43  2  0
 43 44  1  0
 44 45  2  0
 11  5  1  0
 45 20  1  0
 34 25  1  0
 45 40  1  0
 33 28  1  0
M  CHG  1  26   1
M  ISO  2   1   4  10   5
M  END
>  <symbol>  (1030) 
AZDye550

>  <m_abbr>  (1030) 
AZDye550

>  <m_name>  (1030) 
AZDye 550 maleimide

>  <m_type>  (1030) 
linker

>  <m_subtype>  (1030) 
dye

>  <m_Rgroups>  (1030) 
None,None,None,[H],[H]

>  <m_chem_types>  (1030) 
4:amide_nh,5:maleimide_c

>  <m_activation_policy>  (1030) 
canonical-sites-v1

$$$$

     RDKit          2D

 66 70  0  0  0  0  0  0  0  0999 V2000
    4.8818   -1.7193    0.0000 R   0  0  0  0  0  1  0  0  0  0  0  0
    3.4975   -2.2970    0.0000 N   0  0  0  0  0  0  0  0  0  0  0  0
    3.3056   -3.7846    0.0000 C   0  0  0  0  0  0  0  0  0  0  0  0
    4.4981   -4.6946    0.0000 C   0  0  0  0  0  0  0  0  0  0  0  0
    4.3062   -6.1823    0.0000 N   0  0  0  0  0  0  0  0  0  0  0  0
    5.3970   -7.2119    0.0000 C   0  0  0  0  0  0  0  0  0  0  0  0
    6.8712   -6.9347    0.0000 O   0  0  0  0  0  0  0  0  0  0  0  0
    4.7549   -8.5675    0.0000 C   0  0  0  0  0  0  0  0  0  0  0  0
    3.2672   -8.3757    0.0000 C   0  0  0  0  0  0  0  0  0  0  0  0
    2.2376   -9.4665    0.0000 R   0  0  0  0  0  1  0  0  0  0  0  0
    2.9899   -6.9015    0.0000 C   0  0  0  0  0  0  0  0  0  0  0  0
    1.6343   -6.2594    0.0000 O   0  0  0  0  0  0  0  0  0  0  0  0
    2.3050   -1.3870    0.0000 C   0  0  0  0  0  0  0  0  0  0  0  0
    2.4969    0.1007    0.0000 O   0  0  0  0  0  0  0  0  0  0  0  0
    0.9207   -1.9647    0.0000 C   0  0  0  0  0  0  0  0  0  0  0  0
   -0.2717   -1.0547    0.0000 C   0  0  0  0  0  0  0  0  0  0  0  0
   -1.6560   -1.6324    0.0000 C   0  0  0  0  0  0  0  0  0  0  0  0
   -2.8485   -0.7224    0.0000 C   0  0  0  0  0  0  0  0  0  0  0  0
   -4.2327   -1.3001    0.0000 C   0  0  0  0  0  0  0  0  0  0  0  0
   -3.5135   -2.6165    0.0000 C   0  0  0  0  0  0  0  0  0  0  0  0
   -4.6626    0.1370    0.0000 C   0  0  0  0  0  0  0  0  0  0  0  0
   -3.7526    1.3294    0.0000 C   0  0  0  0  0  0  0  0  0  0  0  0
   -2.2649    1.1376    0.0000 C   0  0  0  0  0  0  0  0  0  0  0  0
   -1.3549    2.3300    0.0000 C   0  0  0  0  0  0  0  0  0  0  0  0
    0.1327    2.1382    0.0000 C   0  0  0  0  0  0  0  0  0  0  0  0
    1.0427    3.3306    0.0000 C   0  0  0  0  0  0  0  0  0  0  0  0
    2.5304    3.1388    0.0000 C   0  0  0  0  0  0  0  0  0  0  0  0
    3.5600    4.2296    0.0000 N   0  0  0  0  0  0  0  0  0  0  0  0
    3.2828    5.7037    0.0000 C   0  0  0  0  0  0  0  0  0  0  0  0
    1.8675    6.2007    0.0000 C   0  0  0  0  0  0  0  0  0  0  0  0
    1.5902    7.6748    0.0000 C   0  0  0  0  0  0  0  0  0  0  0  0
    0.1749    8.1718    0.0000 S   0  0  0  0  0  0  0  0  0  0  0  0
    0.6719    9.5871    0.0000 O   0  0  0  0  0  0  0  0  0  0  0  0
   -0.3220    6.7565    0.0000 O   0  0  0  0  0  0  0  0  0  0  0  0
   -1.2404    8.6688    0.0000 O   0  0  0  0  0  0  0  0  0  0  0  0
    4.9156    3.5874    0.0000 C   0  0  0  0  0  0  0  0  0  0  0  0
    6.2999    4.1651    0.0000 C   0  0  0  0  0  0  0  0  0  0  0  0
    7.4924    3.2551    0.0000 C   0  0  0  0  0  0  0  0  0  0  0  0
    7.3005    1.7675    0.0000 C   0  0  0  0  0  0  0  0  0  0  0  0
    8.4930    0.8575    0.0000 S   0  0  0  0  0  0  0  0  0  0  0  0
    9.4030    2.0499    0.0000 O   0  0  0  0  0  0  0  0  0  0  0  0
    7.5830   -0.3350    0.0000 O   0  0  0  0  0  0  0  0  0  0  0  0
    9.6854   -0.0525    0.0000 O   0  0  0  0  0  0  0  0  0  0  0  0
    5.9162    1.1898    0.0000 C   0  0  0  0  0  0  0  0  0  0  0  0
    4.7238    2.0997    0.0000 C   0  0  0  0  0  0  0  0  0  0  0  0
    3.2496    1.8225    0.0000 C   0  0  0  0  0  0  0  0  0  0  0  0
    3.6795    0.3854    0.0000 C   0  0  0  0  0  0  0  0  0  0  0  0
    1.8653    1.2448    0.0000 C   0  0  0  0  0  0  0  0  0  0  0  0
   -6.1622    0.1722    0.0000 N   0  0  0  0  0  0  0  0  0  0  0  0
   -7.0151    1.4062    0.0000 C   0  0  0  0  0  0  0  0  0  0  0  0
   -6.3729    2.7618    0.0000 C   0  0  0  0  0  0  0  0  0  0  0  0
   -7.2258    3.9957    0.0000 C   0  0  0  0  0  0  0  0  0  0  0  0
   -6.5836    5.3513    0.0000 S   0  0  0  0  0  0  0  0  0  0  0  0
   -7.9392    5.9935    0.0000 O   0  0  0  0  0  0  0  0  0  0  0  0
   -5.2280    4.7091    0.0000 O   0  0  0  0  0  0  0  0  0  0  0  0
   -5.9414    6.7069    0.0000 O   0  0  0  0  0  0  0  0  0  0  0  0
   -6.6591   -1.2430    0.0000 C   0  0  0  0  0  0  0  0  0  0  0  0
   -8.0434   -1.8207    0.0000 C   0  0  0  0  0  0  0  0  0  0  0  0
   -8.2353   -3.3084    0.0000 C   0  0  0  0  0  0  0  0  0  0  0  0
   -7.0428   -4.2184    0.0000 C   0  0  0  0  0  0  0  0  0  0  0  0
   -7.2346   -5.7061    0.0000 S   0  0  0  0  0  0  0  0  0  0  0  0
   -8.7223   -5.5142    0.0000 O   0  0  0  0  0  0  0  0  0  0  0  0
   -5.7470   -5.8979    0.0000 O   0  0  0  0  0  0  0  0  0  0  0  0
   -7.4265   -7.1938    0.0000 O   0  0  0  0  0  0  0  0  0  0  0  0
   -5.6585   -3.6407    0.0000 C   0  0  0  0  0  0  0  0  0  0  0  0
   -5.4667   -2.1530    0.0000 C   0  0  0  0  0  0  0  0  0  0  0  0
  1  2  1  0
  2  3  1  0
  3  4  1  0
  4  5  1  0
  5  6  1  0
  6  7  2  0
  6  8  1  0
  8  9  2  0
  9 10  1  0
  9 11  1  0
 11 12  2  0
  2 13  1  0
 13 14  2  0
 13 15  1  0
 15 16  1  0
 16 17  1  0
 17 18  1  0
 18 19  1  0
 19 20  1  0
 19 21  1  0
 21 22  2  3
 22 23  1  0
 23 24  2  3
 24 25  1  0
 25 26  2  3
 26 27  1  0
 27 28  2  0
 28 29  1  0
 29 30  1  0
 30 31  1  0
 31 32  1  0
 32 33  2  0
 32 34  2  0
 32 35  1  0
 28 36  1  0
 36 37  1  0
 37 38  2  0
 38 39  1  0
 39 40  1  0
 40 41  2  0
 40 42  2  0
 40 43  1  0
 39 44  2  0
 44 45  1  0
 45 46  1  0
 46 47  1  0
 46 48  1  0
 21 49  1  0
 49 50  1  0
 50 51  1  0
 51 52  1  0
 52 53  1  0
 53 54  2  0
 53 55  2  0
 53 56  1  0
 49 57  1  0
 57 58  1  0
 58 59  2  0
 59 60  1  0
 60 61  1  0
 61 62  2  0
 61 63  2  0
 61 64  1  0
 60 65  2  0
 65 66  1  0
 11  5  1  0
 66 19  1  0
 46 27  1  0
 66 57  2  0
 45 36  2  0
M  CHG  2  28   1  56  -1
M  ISO  2   1   4  10   5
M  END
>  <symbol>  (1031) 
AZDye647

>  <m_abbr>  (1031) 
AZDye647

>  <m_name>  (1031) 
AZDye 647 maleimide

>  <m_type>  (1031) 
linker

>  <m_subtype>  (1031) 
dye

>  <m_Rgroups>  (1031) 
None,None,None,[H],[H]

>  <m_chem_types>  (1031) 
4:amide_nh,5:maleimide_c

>  <m_activation_policy>  (1031) 
canonical-sites-v1

$$$$

     RDKit          2D

 11 10  0  0  0  0  0  0  0  0999 V2000
   -3.0813    0.0866    0.0000 R   0  0  0  0  0  1  0  0  0  0  0  0
   -1.8784   -0.8095    0.0000 N   0  0  0  0  0  0  0  0  0  0  0  0
   -2.0531   -2.2993    0.0000 R   0  0  0  0  0  1  0  0  0  0  0  0
   -0.5009   -0.2159    0.0000 C   0  0  0  0  0  0  0  0  0  0  0  0
    0.7020   -1.1120    0.0000 C   0  0  0  0  0  0  0  0  0  0  0  0
    2.0795   -0.5184    0.0000 C   0  0  0  0  0  0  0  0  0  0  0  0
    3.2824   -1.4145    0.0000 R   0  0  0  0  0  1  0  0  0  0  0  0
    2.2541    0.9714    0.0000 O   0  0  0  0  0  0  0  0  0  0  0  0
   -0.3263    1.2739    0.0000 C   0  0  0  0  0  0  0  0  0  0  0  0
    1.0513    1.8676    0.0000 R   0  0  0  0  0  1  0  0  0  0  0  0
   -1.5291    2.1701    0.0000 O   0  0  0  0  0  0  0  0  0  0  0  0
  1  2  1  0
  2  3  1  0
  2  4  1  0
  4  5  1  6
  5  6  1  0
  6  7  1  0
  6  8  2  0
  4  9  1  0
  9 10  1  0
  9 11  2  0
M  ISO  4   1   1   3   3   7   2  10   4
M  END
>  <symbol>  (1032) 
D_b

>  <m_abbr>  (1032) 
D_b

>  <m_name>  (1032) 
L-beta-Aspartate backbone

>  <m_type>  (1032) 
aa

>  <m_subtype>  (1032) 
modified

>  <m_Rgroups>  (1032) 
[H],[OH],[H],[OH]

>  <m_chem_types>  (1032) 
1:backbone_n,2:backbone_c,3:backbone_n_mod,4:carboxyl

>  <m_activation_policy>  (1032) 
canonical-sites-v1

$$$$

     RDKit          2D

 11 10  0  0  0  0  0  0  0  0999 V2000
   -3.0813    0.0866    0.0000 R   0  0  0  0  0  1  0  0  0  0  0  0
   -1.8784   -0.8095    0.0000 N   0  0  0  0  0  0  0  0  0  0  0  0
   -2.0531   -2.2993    0.0000 R   0  0  0  0  0  1  0  0  0  0  0  0
   -0.5009   -0.2159    0.0000 C   0  0  0  0  0  0  0  0  0  0  0  0
    0.7020   -1.1120    0.0000 C   0  0  0  0  0  0  0  0  0  0  0  0
    2.0795   -0.5184    0.0000 C   0  0  0  0  0  0  0  0  0  0  0  0
    3.2824   -1.4145    0.0000 R   0  0  0  0  0  1  0  0  0  0  0  0
    2.2541    0.9714    0.0000 O   0  0  0  0  0  0  0  0  0  0  0  0
   -0.3263    1.2739    0.0000 C   0  0  0  0  0  0  0  0  0  0  0  0
    1.0513    1.8676    0.0000 R   0  0  0  0  0  1  0  0  0  0  0  0
   -1.5291    2.1701    0.0000 O   0  0  0  0  0  0  0  0  0  0  0  0
  1  2  1  0
  2  3  1  0
  2  4  1  0
  4  5  1  1
  5  6  1  0
  6  7  1  0
  6  8  2  0
  4  9  1  0
  9 10  1  0
  9 11  2  0
M  ISO  4   1   1   3   3   7   2  10   4
M  END
>  <symbol>  (1033) 
DAsp_b

>  <m_abbr>  (1033) 
DAsp_b

>  <m_name>  (1033) 
D-beta-Aspartate backbone

>  <m_type>  (1033) 
aa

>  <m_subtype>  (1033) 
modified

>  <m_Rgroups>  (1033) 
[H],[OH],[H],[OH]

>  <m_chem_types>  (1033) 
1:backbone_n,2:backbone_c,3:backbone_n_mod,4:carboxyl

>  <m_activation_policy>  (1033) 
canonical-sites-v1

$$$$

     RDKit          2D

 15 14  0  0  0  0  0  0  0  0999 V2000
   -3.8971   -0.3290    0.0000 R   0  0  0  0  0  1  0  0  0  0  0  0
   -2.5981   -1.0790    0.0000 N   0  0  0  0  0  0  0  0  0  0  0  0
   -2.5981   -2.5790    0.0000 R   0  0  0  0  0  1  0  0  0  0  0  0
   -1.2990   -0.3290    0.0000 C   0  0  0  0  0  0  0  0  0  0  0  0
    0.0000   -1.0790    0.0000 C   0  0  0  0  0  0  0  0  0  0  0  0
    1.2990   -0.3290    0.0000 C   0  0  0  0  0  0  0  0  0  0  0  0
    2.5981   -1.0790    0.0000 C   0  0  0  0  0  0  0  0  0  0  0  0
    3.8971   -0.3290    0.0000 R   0  0  0  0  0  1  0  0  0  0  0  0
    2.5981   -2.5790    0.0000 O   0  0  0  0  0  0  0  0  0  0  0  0
    1.2990    1.1710    0.0000 C   0  0  0  0  0  0  0  0  0  0  0  0
    2.5981    1.9210    0.0000 R   0  0  0  0  0  1  0  0  0  0  0  0
    0.5131    1.7633    0.0000 O   0  0  0  0  0  0  0  0  0  0  0  0
   -1.2990    1.1710    0.0000 C   0  0  0  0  0  0  0  0  0  0  0  0
   -0.5131    1.7633    0.0000 R   0  0  0  0  0  1  0  0  0  0  0  0
   -2.5981    1.9210    0.0000 O   0  0  0  0  0  0  0  0  0  0  0  0
  1  2  1  0
  2  3  1  0
  2  4  1  0
  4  5  1  6
  5  6  1  0
  6  7  1  0
  7  8  1  0
  7  9  2  0
  6 10  1  0
 10 11  1  0
 10 12  2  0
  4 13  1  0
 13 14  1  0
 13 15  2  0
M  ISO  5   1   1   3   3   8   4  11   5  14   2
M  END
>  <symbol>  (1034) 
Gla_a

>  <m_abbr>  (1034) 
Gla_a

>  <m_name>  (1034) 
gamma-Carboxyglutamic acid alpha-backbone

>  <m_type>  (1034) 
aa

>  <m_subtype>  (1034) 
modified

>  <m_Rgroups>  (1034) 
[H],[OH],[H],[OH],[OH]

>  <m_chem_types>  (1034) 
1:backbone_n,2:backbone_c,3:backbone_n_mod,4:carboxyl,5:carboxyl

>  <m_activation_policy>  (1034) 
canonical-sites-v1

$$$$

     RDKit          2D

 12 11  0  0  0  0  0  0  0  0999 V2000
   -3.5281   -0.5638    0.0000 R   0  0  0  0  0  1  0  0  0  0  0  0
   -2.1179   -1.0748    0.0000 N   0  0  0  0  0  0  0  0  0  0  0  0
   -1.8553   -2.5517    0.0000 R   0  0  0  0  0  1  0  0  0  0  0  0
   -0.9702   -0.1090    0.0000 C   0  0  0  0  0  0  0  0  0  0  0  0
    0.4401   -0.6200    0.0000 C   0  0  0  0  0  0  0  0  0  0  0  0
    1.5878    0.3458    0.0000 C   0  0  0  0  0  0  0  0  0  0  0  0
    2.9981   -0.1653    0.0000 C   0  0  0  0  0  0  0  0  0  0  0  0
    4.1458    0.8005    0.0000 R   0  0  0  0  0  1  0  0  0  0  0  0
    3.2606   -1.6421    0.0000 O   0  0  0  0  0  0  0  0  0  0  0  0
   -1.2327    1.3678    0.0000 C   0  0  0  0  0  0  0  0  0  0  0  0
   -0.0850    2.3336    0.0000 R   0  0  0  0  0  1  0  0  0  0  0  0
   -2.6430    1.8789    0.0000 O   0  0  0  0  0  0  0  0  0  0  0  0
  1  2  1  0
  2  3  1  0
  2  4  1  0
  4  5  1  6
  5  6  1  0
  6  7  1  0
  7  8  1  0
  7  9  2  0
  4 10  1  0
 10 11  1  0
 10 12  2  0
M  ISO  4   1   1   3   3   8   2  11   4
M  END
>  <symbol>  (1035) 
E_g

>  <m_abbr>  (1035) 
E_g

>  <m_name>  (1035) 
L-Glutamate gamma-backbone

>  <m_type>  (1035) 
aa

>  <m_subtype>  (1035) 
modified

>  <m_Rgroups>  (1035) 
[H],[OH],[H],[OH]

>  <m_chem_types>  (1035) 
1:backbone_n,2:backbone_c,3:backbone_n_mod,4:carboxyl

>  <m_activation_policy>  (1035) 
canonical-sites-v1

$$$$

     RDKit          2D

 12 11  0  0  0  0  0  0  0  0999 V2000
   -3.5281   -0.5638    0.0000 R   0  0  0  0  0  1  0  0  0  0  0  0
   -2.1179   -1.0748    0.0000 N   0  0  0  0  0  0  0  0  0  0  0  0
   -1.8553   -2.5517    0.0000 R   0  0  0  0  0  1  0  0  0  0  0  0
   -0.9702   -0.1090    0.0000 C   0  0  0  0  0  0  0  0  0  0  0  0
    0.4401   -0.6200    0.0000 C   0  0  0  0  0  0  0  0  0  0  0  0
    1.5878    0.3458    0.0000 C   0  0  0  0  0  0  0  0  0  0  0  0
    2.9981   -0.1653    0.0000 C   0  0  0  0  0  0  0  0  0  0  0  0
    4.1458    0.8005    0.0000 R   0  0  0  0  0  1  0  0  0  0  0  0
    3.2606   -1.6421    0.0000 O   0  0  0  0  0  0  0  0  0  0  0  0
   -1.2327    1.3678    0.0000 C   0  0  0  0  0  0  0  0  0  0  0  0
   -0.0850    2.3336    0.0000 R   0  0  0  0  0  1  0  0  0  0  0  0
   -2.6430    1.8789    0.0000 O   0  0  0  0  0  0  0  0  0  0  0  0
  1  2  1  0
  2  3  1  0
  2  4  1  0
  4  5  1  1
  5  6  1  0
  6  7  1  0
  7  8  1  0
  7  9  2  0
  4 10  1  0
 10 11  1  0
 10 12  2  0
M  ISO  4   1   1   3   3   8   2  11   4
M  END
>  <symbol>  (1036) 
DGlu_g

>  <m_abbr>  (1036) 
DGlu_g

>  <m_name>  (1036) 
D-Glutamate gamma-backbone

>  <m_type>  (1036) 
aa

>  <m_subtype>  (1036) 
modified

>  <m_Rgroups>  (1036) 
[H],[OH],[H],[OH]

>  <m_chem_types>  (1036) 
1:backbone_n,2:backbone_c,3:backbone_n_mod,4:carboxyl

>  <m_activation_policy>  (1036) 
canonical-sites-v1

$$$$

     RDKit          2D

 21 21  0  0  0  0  0  0  0  0999 V2000
    6.0000   -2.5981    0.0000 R   0  0  0  0  0  1  0  0  0  0  0  0
    5.2500   -1.2990    0.0000 C   0  0  0  0  0  0  0  0  0  0  0  0
    3.7500   -1.2990    0.0000 C   0  0  0  0  0  0  0  0  0  0  0  0
    3.0000   -0.0000    0.0000 C   0  0  0  0  0  0  0  0  0  0  0  0
    3.7500    1.2990    0.0000 O   0  0  0  0  0  0  0  0  0  0  0  0
    1.5000   -0.0000    0.0000 N   0  0  0  0  0  0  0  0  0  0  0  0
    0.7500   -1.2990    0.0000 C   0  0  0  0  0  0  0  0  0  0  0  0
   -0.7500   -1.2990    0.0000 N   0  0  0  0  0  0  0  0  0  0  0  0
   -1.5000   -2.5981    0.0000 C   0  0  0  0  0  0  0  0  0  0  0  0
   -0.7500   -3.8971    0.0000 O   0  0  0  0  0  0  0  0  0  0  0  0
   -3.0000   -2.5981    0.0000 C   0  0  0  0  0  0  0  0  0  0  0  0
   -3.7500   -3.8971    0.0000 C   0  0  0  0  0  0  0  0  0  0  0  0
   -5.2500   -3.8971    0.0000 R   0  0  0  0  0  1  0  0  0  0  0  0
   -1.5000   -0.0000    0.0000 C   0  0  0  0  0  0  0  0  0  0  0  0
   -0.7500    1.2990    0.0000 N   0  0  0  0  0  0  0  0  0  0  0  0
   -1.5000    2.5981    0.0000 C   0  0  0  0  0  0  0  0  0  0  0  0
   -3.0000    2.5981    0.0000 O   0  0  0  0  0  0  0  0  0  0  0  0
   -0.7500    3.8971    0.0000 C   0  0  0  0  0  0  0  0  0  0  0  0
   -1.5000    5.1962    0.0000 C   0  0  0  0  0  0  0  0  0  0  0  0
   -0.7500    6.4952    0.0000 R   0  0  0  0  0  1  0  0  0  0  0  0
    0.7500    1.2990    0.0000 C   0  0  0  0  0  0  0  0  0  0  0  0
  1  2  1  0
  2  3  1  0
  3  4  1  0
  4  5  2  0
  4  6  1  0
  6  7  1  0
  7  8  1  0
  8  9  1  0
  9 10  2  0
  9 11  1  0
 11 12  1  0
 12 13  1  0
  8 14  1  0
 14 15  1  0
 15 16  1  0
 16 17  2  0
 16 18  1  0
 18 19  1  0
 19 20  1  0
 15 21  1  0
 21  6  1  0
M  ISO  3   1   4  13   5  20   6
M  END
>  <symbol>  (1037) 
TATA

>  <m_abbr>  (1037) 
TATA

>  <m_name>  (1037) 
1,3,5-Triacryloyl-1,3,5-triazinane

>  <m_type>  (1037) 
linker

>  <m_subtype>  (1037) 
crosslink

>  <m_Rgroups>  (1037) 
None,None,None,[H],[H],[H]

>  <m_chem_types>  (1037) 
4:thia_michael_c,5:thia_michael_c,6:thia_michael_c

>  <m_activation_policy>  (1037) 
canonical-sites-v1

$$$$

     RDKit          2D

 24 24  0  0  0  0  0  0  0  0999 V2000
    6.0000    2.5981    0.0000 R   0  0  0  0  0  1  0  0  0  0  0  0
    5.2500    1.2990    0.0000 C   0  0  0  0  0  0  0  0  0  0  0  0
    3.7500    1.2990    0.0000 C   0  0  0  0  0  0  0  0  0  0  0  0
    3.0000    2.5981    0.0000 O   0  0  0  0  0  0  0  0  0  0  0  0
    3.0000    0.0000    0.0000 N   0  0  0  0  0  0  0  0  0  0  0  0
    3.7500   -1.2990    0.0000 R   0  0  0  0  0  1  0  0  0  0  0  0
    1.5000   -0.0000    0.0000 C   0  0  0  0  0  0  0  0  0  0  0  0
    0.7500   -1.2990    0.0000 C   0  0  0  0  0  0  0  0  0  0  0  0
   -0.7500   -1.2990    0.0000 C   0  0  0  0  0  0  0  0  0  0  0  0
   -1.5000   -2.5981    0.0000 N   0  0  0  0  0  0  0  0  0  0  0  0
   -3.0000   -2.5981    0.0000 R   0  0  0  0  0  1  0  0  0  0  0  0
   -0.7500   -3.8971    0.0000 C   0  0  0  0  0  0  0  0  0  0  0  0
    0.7500   -3.8971    0.0000 O   0  0  0  0  0  0  0  0  0  0  0  0
   -1.5000   -5.1962    0.0000 C   0  0  0  0  0  0  0  0  0  0  0  0
   -0.7500   -6.4952    0.0000 R   0  0  0  0  0  1  0  0  0  0  0  0
   -1.5000   -0.0000    0.0000 C   0  0  0  0  0  0  0  0  0  0  0  0
   -0.7500    1.2990    0.0000 C   0  0  0  0  0  0  0  0  0  0  0  0
   -1.5000    2.5981    0.0000 N   0  0  0  0  0  0  0  0  0  0  0  0
   -0.7500    3.8971    0.0000 R   0  0  0  0  0  1  0  0  0  0  0  0
   -3.0000    2.5981    0.0000 C   0  0  0  0  0  0  0  0  0  0  0  0
   -3.7500    1.2990    0.0000 O   0  0  0  0  0  0  0  0  0  0  0  0
   -3.7500    3.8971    0.0000 C   0  0  0  0  0  0  0  0  0  0  0  0
   -5.2500    3.8971    0.0000 R   0  0  0  0  0  1  0  0  0  0  0  0
    0.7500    1.2990    0.0000 C   0  0  0  0  0  0  0  0  0  0  0  0
  1  2  1  0
  2  3  1  0
  3  4  2  0
  3  5  1  0
  5  6  1  0
  5  7  1  0
  7  8  2  0
  8  9  1  0
  9 10  1  0
 10 11  1  0
 10 12  1  0
 12 13  2  0
 12 14  1  0
 14 15  1  0
  9 16  2  0
 16 17  1  0
 17 18  1  0
 18 19  1  0
 18 20  1  0
 20 21  2  0
 20 22  1  0
 22 23  1  0
 17 24  2  0
 24  7  1  0
M  ISO  6   1   4   6   5  11   6  15   7  19   8  23   9
M  END
>  <symbol>  (1038) 
TBAB

>  <m_abbr>  (1038) 
TBAB

>  <m_name>  (1038) 
N,N',N''-Benzene-1,3,5-triyl-tris(2-bromoacetamide)

>  <m_type>  (1038) 
linker

>  <m_subtype>  (1038) 
crosslink

>  <m_Rgroups>  (1038) 
None,None,None,[Br],[H],[H],[Br],[H],[Br]

>  <m_chem_types>  (1038) 
4:alkyl_halide_c,5:amide_nh,6:amide_nh,7:alkyl_halide_c,8:amide_nh,9:alkyl_halide_c

>  <m_activation_policy>  (1038) 
canonical-sites-v1

$$$$

     RDKit          2D

  7  6  0  0  0  0  0  0  0  0999 V2000
    2.2500    0.5567    0.0000 R   0  0  0  0  0  1  0  0  0  0  0  0
    1.5000   -0.7423    0.0000 O   0  0  0  0  0  0  0  0  0  0  0  0
    0.0000   -0.7423    0.0000 C   0  0  0  0  0  0  0  0  0  0  0  0
   -0.7500   -2.0413    0.0000 C   0  0  0  0  0  0  0  0  0  0  0  0
   -0.7500    0.5567    0.0000 C   0  0  0  0  0  0  0  0  0  0  0  0
   -2.2500    0.5567    0.0000 R   0  0  0  0  0  1  0  0  0  0  0  0
   -0.0000    1.8558    0.0000 O   0  0  0  0  0  0  0  0  0  0  0  0
  1  2  1  0
  2  3  1  0
  3  4  1  1
  3  5  1  0
  5  6  1  0
  5  7  2  0
M  ISO  2   1   1   6   2
M  END
>  <symbol>  (1039) 
D_Lac

>  <m_abbr>  (1039) 
D_Lac

>  <m_name>  (1039) 
D-Lactic acid

>  <m_type>  (1039) 
aa

>  <m_subtype>  (1039) 
depsi

>  <m_Rgroups>  (1039) 
[H],[OH]

>  <m_chem_types>  (1039) 
1:backbone_o,2:backbone_c

>  <m_activation_policy>  (1039) 
canonical-sites-v1

$$$$

     RDKit          2D

  7  6  0  0  0  0  0  0  0  0999 V2000
    2.2500    0.5567    0.0000 R   0  0  0  0  0  1  0  0  0  0  0  0
    1.5000   -0.7423    0.0000 O   0  0  0  0  0  0  0  0  0  0  0  0
    0.0000   -0.7423    0.0000 C   0  0  0  0  0  0  0  0  0  0  0  0
   -0.7500   -2.0413    0.0000 C   0  0  0  0  0  0  0  0  0  0  0  0
   -0.7500    0.5567    0.0000 C   0  0  0  0  0  0  0  0  0  0  0  0
   -2.2500    0.5567    0.0000 R   0  0  0  0  0  1  0  0  0  0  0  0
   -0.0000    1.8558    0.0000 O   0  0  0  0  0  0  0  0  0  0  0  0
  1  2  1  0
  2  3  1  0
  3  4  1  6
  3  5  1  0
  5  6  1  0
  5  7  2  0
M  ISO  2   1   1   6   2
M  END
>  <symbol>  (1040) 
L_Lac

>  <m_abbr>  (1040) 
L_Lac

>  <m_name>  (1040) 
L-Lactic acid

>  <m_type>  (1040) 
aa

>  <m_subtype>  (1040) 
depsi

>  <m_Rgroups>  (1040) 
[H],[OH]

>  <m_chem_types>  (1040) 
1:backbone_o,2:backbone_c

>  <m_activation_policy>  (1040) 
canonical-sites-v1

$$$$

     RDKit          2D

  6  5  0  0  0  0  0  0  0  0999 V2000
   -2.8748   -0.2197    0.0000 R   0  0  0  0  0  1  0  0  0  0  0  0
   -1.4825    0.3386    0.0000 O   0  0  0  0  0  0  0  0  0  0  0  0
   -0.3029   -0.5880    0.0000 C   0  0  0  0  0  0  0  0  0  0  0  0
    1.0893   -0.0297    0.0000 C   0  0  0  0  0  0  0  0  0  0  0  0
    2.2689   -0.9563    0.0000 R   0  0  0  0  0  1  0  0  0  0  0  0
    1.3020    1.4551    0.0000 O   0  0  0  0  0  0  0  0  0  0  0  0
  1  2  1  0
  2  3  1  0
  3  4  1  0
  4  5  1  0
  4  6  2  0
M  ISO  2   1   1   5   2
M  END
>  <symbol>  (1041) 
GlyAc

>  <m_abbr>  (1041) 
GlyAc

>  <m_name>  (1041) 
Glycolic acid

>  <m_type>  (1041) 
aa

>  <m_subtype>  (1041) 
depsi

>  <m_Rgroups>  (1041) 
[H],[OH]

>  <m_chem_types>  (1041) 
1:backbone_o,2:backbone_c

>  <m_activation_policy>  (1041) 
canonical-sites-v1

$$$$

     RDKit          2D

 19 20  0  0  0  0  0  0  0  0999 V2000
    0.2326    3.1053    0.0000 R   0  0  0  0  0  1  0  0  0  0  0  0
    0.9713    1.7998    0.0000 N   0  0  0  0  0  0  0  0  0  0  0  0
    2.4713    1.7869    0.0000 R   0  0  0  0  0  1  0  0  0  0  0  0
    0.2101    0.5073    0.0000 C   0  0  0  0  0  0  0  0  0  0  0  0
    0.9489   -0.7981    0.0000 C   0  0  0  0  0  0  0  0  0  0  0  0
    2.4488   -0.8111    0.0000 C   0  0  0  0  0  0  0  0  0  0  0  0
    3.1875   -2.1166    0.0000 C   0  0  0  0  0  0  0  0  0  0  0  0
    4.6875   -2.1296    0.0000 C   0  0  0  0  0  0  0  0  0  0  0  0
    5.4487   -0.8371    0.0000 C   0  0  0  0  0  0  0  0  0  0  0  0
    4.7100    0.4684    0.0000 C   0  0  0  0  0  0  0  0  0  0  0  0
    3.2100    0.4814    0.0000 C   0  0  0  0  0  0  0  0  0  0  0  0
   -1.2898    0.5203    0.0000 C   0  0  0  0  0  0  0  0  0  0  0  0
   -2.1820   -0.6855    0.0000 N   0  0  0  0  0  0  0  0  0  0  0  0
   -3.6045   -0.2097    0.0000 C   0  0  0  0  0  0  0  0  0  0  0  0
   -4.8256   -1.0808    0.0000 C   0  0  0  0  0  0  0  0  0  0  0  0
   -6.1906   -0.4588    0.0000 R   0  0  0  0  0  1  0  0  0  0  0  0
   -4.6817   -2.5739    0.0000 O   0  0  0  0  0  0  0  0  0  0  0  0
   -3.5915    1.2903    0.0000 C   0  0  0  0  0  0  0  0  0  0  0  0
   -2.1610    1.7414    0.0000 S   0  0  0  0  0  0  0  0  0  0  0  0
  1  2  1  0
  2  3  1  0
  2  4  1  0
  4  5  1  1
  5  6  1  0
  6  7  2  0
  7  8  1  0
  8  9  2  0
  9 10  1  0
 10 11  2  0
  4 12  1  0
 12 13  2  0
 13 14  1  0
 14 15  1  0
 15 16  1  0
 15 17  2  0
 14 18  2  0
 18 19  1  0
 11  6  1  0
 19 12  1  0
M  ISO  3   1   1   3   3  16   2
M  END
>  <symbol>  (1042) 
PheTzn

>  <m_abbr>  (1042) 
PheTzn

>  <m_name>  (1042) 
L-Phe-thiazole (C-terminal thiazole backbone)

>  <m_type>  (1042) 
aa

>  <m_subtype>  (1042) 
modified

>  <m_Rgroups>  (1042) 
[H],[OH],[H]

>  <m_chem_types>  (1042) 
1:backbone_n,2:backbone_c,3:backbone_n_mod

>  <m_activation_policy>  (1042) 
canonical-sites-v1

$$$$

     RDKit          2D

 19 20  0  0  0  0  0  0  0  0999 V2000
    0.2326    3.1053    0.0000 R   0  0  0  0  0  1  0  0  0  0  0  0
    0.9713    1.7998    0.0000 N   0  0  0  0  0  0  0  0  0  0  0  0
    2.4713    1.7869    0.0000 R   0  0  0  0  0  1  0  0  0  0  0  0
    0.2101    0.5073    0.0000 C   0  0  0  0  0  0  0  0  0  0  0  0
    0.9489   -0.7981    0.0000 C   0  0  0  0  0  0  0  0  0  0  0  0
    2.4488   -0.8111    0.0000 C   0  0  0  0  0  0  0  0  0  0  0  0
    3.1875   -2.1166    0.0000 C   0  0  0  0  0  0  0  0  0  0  0  0
    4.6875   -2.1296    0.0000 C   0  0  0  0  0  0  0  0  0  0  0  0
    5.4487   -0.8371    0.0000 C   0  0  0  0  0  0  0  0  0  0  0  0
    4.7100    0.4684    0.0000 C   0  0  0  0  0  0  0  0  0  0  0  0
    3.2100    0.4814    0.0000 C   0  0  0  0  0  0  0  0  0  0  0  0
   -1.2898    0.5203    0.0000 C   0  0  0  0  0  0  0  0  0  0  0  0
   -2.1820   -0.6855    0.0000 N   0  0  0  0  0  0  0  0  0  0  0  0
   -3.6045   -0.2097    0.0000 C   0  0  0  0  0  0  0  0  0  0  0  0
   -4.8256   -1.0808    0.0000 C   0  0  0  0  0  0  0  0  0  0  0  0
   -6.1906   -0.4588    0.0000 R   0  0  0  0  0  1  0  0  0  0  0  0
   -4.6817   -2.5739    0.0000 O   0  0  0  0  0  0  0  0  0  0  0  0
   -3.5915    1.2903    0.0000 C   0  0  0  0  0  0  0  0  0  0  0  0
   -2.1610    1.7414    0.0000 S   0  0  0  0  0  0  0  0  0  0  0  0
  1  2  1  0
  2  3  1  0
  2  4  1  0
  4  5  1  6
  5  6  1  0
  6  7  2  0
  7  8  1  0
  8  9  2  0
  9 10  1  0
 10 11  2  0
  4 12  1  0
 12 13  2  0
 13 14  1  0
 14 15  1  0
 15 16  1  0
 15 17  2  0
 14 18  2  0
 18 19  1  0
 11  6  1  0
 19 12  1  0
M  ISO  3   1   1   3   3  16   2
M  END
>  <symbol>  (1043) 
D_PheTzn

>  <m_abbr>  (1043) 
D_PheTzn

>  <m_name>  (1043) 
D-Phe-thiazole (C-terminal thiazole backbone)

>  <m_type>  (1043) 
aa

>  <m_subtype>  (1043) 
modified

>  <m_Rgroups>  (1043) 
[H],[OH],[H]

>  <m_chem_types>  (1043) 
1:backbone_n,2:backbone_c,3:backbone_n_mod

>  <m_activation_policy>  (1043) 
canonical-sites-v1

$$$$

     RDKit          2D

 13 13  0  0  0  0  0  0  0  0999 V2000
   -4.1895   -1.0425    0.0000 R   0  0  0  0  0  1  0  0  0  0  0  0
   -2.6994   -0.8704    0.0000 N   0  0  0  0  0  0  0  0  0  0  0  0
   -1.8053   -2.0748    0.0000 R   0  0  0  0  0  1  0  0  0  0  0  0
   -2.1034    0.5061    0.0000 C   0  0  0  0  0  0  0  0  0  0  0  0
   -2.9975    1.7105    0.0000 C   0  0  0  0  0  0  0  0  0  0  0  0
   -0.6133    0.6782    0.0000 C   0  0  0  0  0  0  0  0  0  0  0  0
    0.4018   -0.4261    0.0000 N   0  0  0  0  0  0  0  0  0  0  0  0
    1.7658    0.1981    0.0000 C   0  0  0  0  0  0  0  0  0  0  0  0
    3.0724   -0.5385    0.0000 C   0  0  0  0  0  0  0  0  0  0  0  0
    3.0879   -2.0385    0.0000 R   0  0  0  0  0  1  0  0  0  0  0  0
    4.3637    0.2248    0.0000 O   0  0  0  0  0  0  0  0  0  0  0  0
    1.5936    1.6882    0.0000 C   0  0  0  0  0  0  0  0  0  0  0  0
    0.1233    1.9849    0.0000 S   0  0  0  0  0  0  0  0  0  0  0  0
  1  2  1  0
  2  3  1  0
  2  4  1  0
  4  5  1  1
  4  6  1  0
  6  7  2  0
  7  8  1  0
  8  9  1  0
  9 10  1  0
  9 11  2  0
  8 12  2  0
 12 13  1  0
 13  6  1  0
M  ISO  3   1   1   3   3  10   2
M  END
>  <symbol>  (1044) 
AlaTzn

>  <m_abbr>  (1044) 
AlaTzn

>  <m_name>  (1044) 
L-Ala-thiazole (C-terminal thiazole backbone)

>  <m_type>  (1044) 
aa

>  <m_subtype>  (1044) 
modified

>  <m_Rgroups>  (1044) 
[H],[OH],[H]

>  <m_chem_types>  (1044) 
1:backbone_n,2:backbone_c,3:backbone_n_mod

>  <m_activation_policy>  (1044) 
canonical-sites-v1

$$$$

     RDKit          2D

 12 12  0  0  0  0  0  0  0  0999 V2000
   -4.6398   -0.8104    0.0000 R   0  0  0  0  0  1  0  0  0  0  0  0
   -3.2978   -0.1404    0.0000 N   0  0  0  0  0  0  0  0  0  0  0  0
   -3.2070    1.3568    0.0000 R   0  0  0  0  0  1  0  0  0  0  0  0
   -2.0465   -0.9677    0.0000 C   0  0  0  0  0  0  0  0  0  0  0  0
   -0.7045   -0.2976    0.0000 C   0  0  0  0  0  0  0  0  0  0  0  0
    0.6264   -0.9895    0.0000 N   0  0  0  0  0  0  0  0  0  0  0  0
    1.6957    0.0624    0.0000 C   0  0  0  0  0  0  0  0  0  0  0  0
    3.1753   -0.1844    0.0000 C   0  0  0  0  0  0  0  0  0  0  0  0
    3.7014   -1.5891    0.0000 R   0  0  0  0  0  1  0  0  0  0  0  0
    4.1288    0.9736    0.0000 O   0  0  0  0  0  0  0  0  0  0  0  0
    1.0257    1.4044    0.0000 C   0  0  0  0  0  0  0  0  0  0  0  0
   -0.4577    1.1819    0.0000 S   0  0  0  0  0  0  0  0  0  0  0  0
  1  2  1  0
  2  3  1  0
  2  4  1  0
  4  5  1  0
  5  6  2  0
  6  7  1  0
  7  8  1  0
  8  9  1  0
  8 10  2  0
  7 11  2  0
 11 12  1  0
 12  5  1  0
M  ISO  3   1   1   3   3   9   2
M  END
>  <symbol>  (1045) 
GlyTzn

>  <m_abbr>  (1045) 
GlyTzn

>  <m_name>  (1045) 
Gly-thiazole (C-terminal thiazole backbone)

>  <m_type>  (1045) 
aa

>  <m_subtype>  (1045) 
modified

>  <m_Rgroups>  (1045) 
[H],[OH],[H]

>  <m_chem_types>  (1045) 
1:backbone_n,2:backbone_c,3:backbone_n_mod

>  <m_activation_policy>  (1045) 
canonical-sites-v1

$$$$

     RDKit          2D

 15 15  0  0  0  0  0  0  0  0999 V2000
   -3.4790   -1.9067    0.0000 R   0  0  0  0  0  1  0  0  0  0  0  0
   -2.0330   -1.5082    0.0000 N   0  0  0  0  0  0  0  0  0  0  0  0
   -0.9648   -2.5613    0.0000 R   0  0  0  0  0  1  0  0  0  0  0  0
   -1.6550   -0.0566    0.0000 C   0  0  0  0  0  0  0  0  0  0  0  0
   -0.2089    0.3419    0.0000 C   0  0  0  0  0  0  0  0  0  0  0  0
    0.9635   -0.5938    0.0000 N   0  0  0  0  0  0  0  0  0  0  0  0
    2.2156    0.2321    0.0000 C   0  0  0  0  0  0  0  0  0  0  0  0
    3.6198   -0.2955    0.0000 C   0  0  0  0  0  0  0  0  0  0  0  0
    3.8650   -1.7753    0.0000 R   0  0  0  0  0  1  0  0  0  0  0  0
    4.7788    0.6567    0.0000 O   0  0  0  0  0  0  0  0  0  0  0  0
    1.8171    1.6782    0.0000 C   0  0  0  0  0  0  0  0  0  0  0  0
    0.3187    1.7460    0.0000 S   0  0  0  0  0  0  0  0  0  0  0  0
   -2.7232    0.9965    0.0000 C   0  0  0  0  0  0  0  0  0  0  0  0
   -4.1693    0.5980    0.0000 C   0  0  0  0  0  0  0  0  0  0  0  0
   -2.3453    2.4481    0.0000 C   0  0  0  0  0  0  0  0  0  0  0  0
  1  2  1  0
  2  3  1  0
  2  4  1  0
  4  5  1  0
  5  6  2  0
  6  7  1  0
  7  8  1  0
  8  9  1  0
  8 10  2  0
  7 11  2  0
 11 12  1  0
  4 13  1  1
 13 14  1  0
 13 15  1  0
 12  5  1  0
M  ISO  3   1   1   3   3   9   2
M  END
>  <symbol>  (1046) 
ValTzn

>  <m_abbr>  (1046) 
ValTzn

>  <m_name>  (1046) 
L-Val-thiazole (C-terminal thiazole backbone)

>  <m_type>  (1046) 
aa

>  <m_subtype>  (1046) 
modified

>  <m_Rgroups>  (1046) 
[H],[OH],[H]

>  <m_chem_types>  (1046) 
1:backbone_n,2:backbone_c,3:backbone_n_mod

>  <m_activation_policy>  (1046) 
canonical-sites-v1

$$$$

     RDKit          2D

 16 16  0  0  0  0  0  0  0  0999 V2000
   -3.0171   -1.7984    0.0000 R   0  0  0  0  0  1  0  0  0  0  0  0
   -1.5704   -1.4024    0.0000 N   0  0  0  0  0  0  0  0  0  0  0  0
   -0.5040   -2.4573    0.0000 R   0  0  0  0  0  1  0  0  0  0  0  0
   -1.1900    0.0486    0.0000 C   0  0  0  0  0  0  0  0  0  0  0  0
   -2.2563    1.1035    0.0000 C   0  0  0  0  0  0  0  0  0  0  0  0
   -3.7031    0.7074    0.0000 C   0  0  0  0  0  0  0  0  0  0  0  0
   -4.7695    1.7624    0.0000 C   0  0  0  0  0  0  0  0  0  0  0  0
   -4.0835   -0.7435    0.0000 C   0  0  0  0  0  0  0  0  0  0  0  0
    0.2568    0.4446    0.0000 C   0  0  0  0  0  0  0  0  0  0  0  0
    1.4276   -0.4930    0.0000 N   0  0  0  0  0  0  0  0  0  0  0  0
    2.6812    0.3307    0.0000 C   0  0  0  0  0  0  0  0  0  0  0  0
    4.0844   -0.1993    0.0000 C   0  0  0  0  0  0  0  0  0  0  0  0
    4.3271   -1.6795    0.0000 R   0  0  0  0  0  1  0  0  0  0  0  0
    5.2450    0.7510    0.0000 O   0  0  0  0  0  0  0  0  0  0  0  0
    2.2851    1.7775    0.0000 C   0  0  0  0  0  0  0  0  0  0  0  0
    0.7868    1.8479    0.0000 S   0  0  0  0  0  0  0  0  0  0  0  0
  1  2  1  0
  2  3  1  0
  2  4  1  0
  4  5  1  1
  5  6  1  0
  6  7  1  0
  6  8  1  0
  4  9  1  0
  9 10  2  0
 10 11  1  0
 11 12  1  0
 12 13  1  0
 12 14  2  0
 11 15  2  0
 15 16  1  0
 16  9  1  0
M  ISO  3   1   1   3   3  13   2
M  END
>  <symbol>  (1047) 
LeuTzn

>  <m_abbr>  (1047) 
LeuTzn

>  <m_name>  (1047) 
L-Leu-thiazole (C-terminal thiazole backbone)

>  <m_type>  (1047) 
aa

>  <m_subtype>  (1047) 
modified

>  <m_Rgroups>  (1047) 
[H],[OH],[H]

>  <m_chem_types>  (1047) 
1:backbone_n,2:backbone_c,3:backbone_n_mod

>  <m_activation_policy>  (1047) 
canonical-sites-v1

$$$$

     RDKit          2D

 21 22  0  0  0  0  0  0  0  0999 V2000
   -0.6979    3.2064    0.0000 R   0  0  0  0  0  1  0  0  0  0  0  0
    0.1333    1.9577    0.0000 N   0  0  0  0  0  0  0  0  0  0  0  0
    1.6302    2.0532    0.0000 R   0  0  0  0  0  1  0  0  0  0  0  0
   -0.5326    0.6136    0.0000 C   0  0  0  0  0  0  0  0  0  0  0  0
    0.2986   -0.6351    0.0000 C   0  0  0  0  0  0  0  0  0  0  0  0
    1.7955   -0.5396    0.0000 C   0  0  0  0  0  0  0  0  0  0  0  0
    2.6267   -1.7883    0.0000 C   0  0  0  0  0  0  0  0  0  0  0  0
    4.1236   -1.6929    0.0000 C   0  0  0  0  0  0  0  0  0  0  0  0
    4.7895   -0.3488    0.0000 C   0  0  0  0  0  0  0  0  0  0  0  0
    6.2864   -0.2533    0.0000 O   0  0  0  0  0  0  0  0  0  0  0  0
    7.1176   -1.5020    0.0000 R   0  0  0  0  0  1  0  0  0  0  0  0
    3.9583    0.8999    0.0000 C   0  0  0  0  0  0  0  0  0  0  0  0
    2.4614    0.8045    0.0000 C   0  0  0  0  0  0  0  0  0  0  0  0
   -2.0295    0.5181    0.0000 C   0  0  0  0  0  0  0  0  0  0  0  0
   -2.8322   -0.7490    0.0000 N   0  0  0  0  0  0  0  0  0  0  0  0
   -4.2854   -0.3772    0.0000 C   0  0  0  0  0  0  0  0  0  0  0  0
   -5.4403   -1.3343    0.0000 C   0  0  0  0  0  0  0  0  0  0  0  0
   -6.8467   -0.8126    0.0000 R   0  0  0  0  0  1  0  0  0  0  0  0
   -5.1889   -2.8131    0.0000 O   0  0  0  0  0  0  0  0  0  0  0  0
   -4.3808    1.1197    0.0000 C   0  0  0  0  0  0  0  0  0  0  0  0
   -2.9866    1.6731    0.0000 S   0  0  0  0  0  0  0  0  0  0  0  0
  1  2  1  0
  2  3  1  0
  2  4  1  0
  4  5  1  1
  5  6  1  0
  6  7  1  0
  7  8  2  0
  8  9  1  0
  9 10  1  0
 10 11  1  0
  9 12  2  0
 12 13  1  0
  4 14  1  0
 14 15  2  0
 15 16  1  0
 16 17  1  0
 17 18  1  0
 17 19  2  0
 16 20  2  0
 20 21  1  0
 13  6  2  0
 21 14  1  0
M  ISO  4   1   1   3   3  11   4  18   2
M  END
>  <symbol>  (1048) 
TyrTzn

>  <m_abbr>  (1048) 
TyrTzn

>  <m_name>  (1048) 
L-Tyr-thiazole (C-terminal thiazole backbone)

>  <m_type>  (1048) 
aa

>  <m_subtype>  (1048) 
modified

>  <m_Rgroups>  (1048) 
[H],[OH],[H],[H]

>  <m_chem_types>  (1048) 
1:backbone_n,2:backbone_c,3:backbone_n_mod,4:aryl_phenol_o

>  <m_activation_policy>  (1048) 
canonical-sites-v1

$$$$

     RDKit          2D

 15 15  0  0  0  0  0  0  0  0999 V2000
   -3.2310   -1.9483    0.0000 R   0  0  0  0  0  1  0  0  0  0  0  0
   -1.7971   -1.5079    0.0000 N   0  0  0  0  0  0  0  0  0  0  0  0
   -0.6988   -2.5296    0.0000 R   0  0  0  0  0  1  0  0  0  0  0  0
   -1.4615   -0.0460    0.0000 C   0  0  0  0  0  0  0  0  0  0  0  0
   -2.5598    0.9757    0.0000 C   0  0  0  0  0  0  0  0  0  0  0  0
   -3.9937    0.5353    0.0000 S   0  0  0  0  0  0  0  0  0  0  0  0
   -5.0920    1.5569    0.0000 R   0  0  0  0  0  1  0  0  0  0  0  0
   -0.0276    0.3944    0.0000 C   0  0  0  0  0  0  0  0  0  0  0  0
    1.1715   -0.5068    0.0000 N   0  0  0  0  0  0  0  0  0  0  0  0
    2.3991    0.3551    0.0000 C   0  0  0  0  0  0  0  0  0  0  0  0
    3.8180   -0.1315    0.0000 C   0  0  0  0  0  0  0  0  0  0  0  0
    4.1061   -1.6036    0.0000 R   0  0  0  0  0  1  0  0  0  0  0  0
    4.9489    0.8540    0.0000 O   0  0  0  0  0  0  0  0  0  0  0  0
    1.9588    1.7890    0.0000 C   0  0  0  0  0  0  0  0  0  0  0  0
    0.4590    1.8133    0.0000 S   0  0  0  0  0  0  0  0  0  0  0  0
  1  2  1  0
  2  3  1  0
  2  4  1  0
  4  5  1  1
  5  6  1  0
  6  7  1  0
  4  8  1  0
  8  9  2  0
  9 10  1  0
 10 11  1  0
 11 12  1  0
 11 13  2  0
 10 14  2  0
 14 15  1  0
 15  8  1  0
M  ISO  4   1   1   3   3   7   4  12   2
M  END
>  <symbol>  (1049) 
CysTzn

>  <m_abbr>  (1049) 
CysTzn

>  <m_name>  (1049) 
L-Cys-thiazole (C-terminal thiazole backbone)

>  <m_type>  (1049) 
aa

>  <m_subtype>  (1049) 
modified

>  <m_Rgroups>  (1049) 
[H],[OH],[H],[H]

>  <m_chem_types>  (1049) 
1:backbone_n,2:backbone_c,3:backbone_n_mod,4:thiol

>  <m_activation_policy>  (1049) 
canonical-sites-v1

$$$$

     RDKit          2D

 19 20  0  0  0  0  0  0  0  0999 V2000
   -0.4786    2.4615    0.0000 R   0  0  0  0  0  1  0  0  0  0  0  0
    0.5951    1.4141    0.0000 N   0  0  0  0  0  0  0  0  0  0  0  0
    2.0391    1.8202    0.0000 R   0  0  0  0  0  1  0  0  0  0  0  0
    0.2248   -0.0395    0.0000 C   0  0  0  0  0  0  0  0  0  0  0  0
    1.2985   -1.0870    0.0000 C   0  0  0  0  0  0  0  0  0  0  0  0
    2.7425   -0.6808    0.0000 C   0  0  0  0  0  0  0  0  0  0  0  0
    3.8162   -1.7283    0.0000 C   0  0  0  0  0  0  0  0  0  0  0  0
    5.2602   -1.3221    0.0000 C   0  0  0  0  0  0  0  0  0  0  0  0
    5.6304    0.1314    0.0000 C   0  0  0  0  0  0  0  0  0  0  0  0
    4.5567    1.1789    0.0000 C   0  0  0  0  0  0  0  0  0  0  0  0
    3.1128    0.7727    0.0000 C   0  0  0  0  0  0  0  0  0  0  0  0
   -1.2191   -0.4457    0.0000 C   0  0  0  0  0  0  0  0  0  0  0  0
   -1.7393   -1.8526    0.0000 C   0  0  0  0  0  0  0  0  0  0  0  0
   -3.2381   -1.7926    0.0000 S   0  0  0  0  0  0  0  0  0  0  0  0
   -3.6443   -0.3487    0.0000 C   0  0  0  0  0  0  0  0  0  0  0  0
   -5.0512    0.1715    0.0000 C   0  0  0  0  0  0  0  0  0  0  0  0
   -5.3042    1.6500    0.0000 R   0  0  0  0  0  1  0  0  0  0  0  0
   -6.2051   -0.7868    0.0000 O   0  0  0  0  0  0  0  0  0  0  0  0
   -2.3965    0.4838    0.0000 N   0  0  0  0  0  0  0  0  0  0  0  0
  1  2  1  0
  2  3  1  0
  2  4  1  0
  4  5  1  1
  5  6  1  0
  6  7  2  0
  7  8  1  0
  8  9  2  0
  9 10  1  0
 10 11  2  0
  4 12  1  0
 12 13  1  6
 13 14  1  0
 14 15  1  0
 15 16  1  0
 16 17  1  0
 16 18  2  0
 15 19  2  0
 11  6  1  0
 19 12  1  0
M  ISO  3   1   1   3   3  17   2
M  END
>  <symbol>  (1050) 
PheTzl

>  <m_abbr>  (1050) 
PheTzl

>  <m_name>  (1050) 
L-Phe-thiazoline (C-terminal thiazoline backbone)

>  <m_type>  (1050) 
aa

>  <m_subtype>  (1050) 
modified

>  <m_Rgroups>  (1050) 
[H],[OH],[H]

>  <m_chem_types>  (1050) 
1:backbone_n,2:backbone_c,3:backbone_n_mod

>  <m_activation_policy>  (1050) 
canonical-sites-v1

$$$$

     RDKit          2D

 13 13  0  0  0  0  0  0  0  0999 V2000
    4.5048   -0.3489    0.0000 R   0  0  0  0  0  1  0  0  0  0  0  0
    3.1247    0.2387    0.0000 N   0  0  0  0  0  0  0  0  0  0  0  0
    2.9435    1.7277    0.0000 R   0  0  0  0  0  1  0  0  0  0  0  0
    1.9257   -0.6628    0.0000 C   0  0  0  0  0  0  0  0  0  0  0  0
    2.1069   -2.1518    0.0000 C   0  0  0  0  0  0  0  0  0  0  0  0
    0.5456   -0.0752    0.0000 C   0  0  0  0  0  0  0  0  0  0  0  0
    0.2098    1.3868    0.0000 C   0  0  0  0  0  0  0  0  0  0  0  0
   -1.2844    1.5191    0.0000 S   0  0  0  0  0  0  0  0  0  0  0  0
   -1.8720    0.1390    0.0000 C   0  0  0  0  0  0  0  0  0  0  0  0
   -3.3339   -0.1968    0.0000 C   0  0  0  0  0  0  0  0  0  0  0  0
   -4.3557    0.9013    0.0000 R   0  0  0  0  0  1  0  0  0  0  0  0
   -3.7740   -1.6308    0.0000 O   0  0  0  0  0  0  0  0  0  0  0  0
   -0.7410   -0.8463    0.0000 N   0  0  0  0  0  0  0  0  0  0  0  0
  1  2  1  0
  2  3  1  0
  2  4  1  0
  4  5  1  1
  4  6  1  0
  6  7  1  1
  7  8  1  0
  8  9  1  0
  9 10  1  0
 10 11  1  0
 10 12  2  0
  9 13  2  0
 13  6  1  0
M  ISO  3   1   1   3   3  11   2
M  END
>  <symbol>  (1051) 
AlaTzl

>  <m_abbr>  (1051) 
AlaTzl

>  <m_name>  (1051) 
L-Ala-thiazoline (C-terminal thiazoline backbone)

>  <m_type>  (1051) 
aa

>  <m_subtype>  (1051) 
modified

>  <m_Rgroups>  (1051) 
[H],[OH],[H]

>  <m_chem_types>  (1051) 
1:backbone_n,2:backbone_c,3:backbone_n_mod

>  <m_activation_policy>  (1051) 
canonical-sites-v1

$$$$

     RDKit          2D

 15 15  0  0  0  0  0  0  0  0999 V2000
   -3.2310   -1.9483    0.0000 R   0  0  0  0  0  1  0  0  0  0  0  0
   -1.7971   -1.5079    0.0000 N   0  0  0  0  0  0  0  0  0  0  0  0
   -0.6988   -2.5296    0.0000 R   0  0  0  0  0  1  0  0  0  0  0  0
   -1.4615   -0.0460    0.0000 C   0  0  0  0  0  0  0  0  0  0  0  0
   -2.5598    0.9757    0.0000 C   0  0  0  0  0  0  0  0  0  0  0  0
   -3.9937    0.5353    0.0000 O   0  0  0  0  0  0  0  0  0  0  0  0
   -5.0920    1.5569    0.0000 R   0  0  0  0  0  1  0  0  0  0  0  0
   -0.0276    0.3944    0.0000 C   0  0  0  0  0  0  0  0  0  0  0  0
    1.1715   -0.5068    0.0000 N   0  0  0  0  0  0  0  0  0  0  0  0
    2.3991    0.3551    0.0000 C   0  0  0  0  0  0  0  0  0  0  0  0
    3.8180   -0.1315    0.0000 C   0  0  0  0  0  0  0  0  0  0  0  0
    4.1061   -1.6036    0.0000 R   0  0  0  0  0  1  0  0  0  0  0  0
    4.9489    0.8540    0.0000 O   0  0  0  0  0  0  0  0  0  0  0  0
    1.9588    1.7890    0.0000 C   0  0  0  0  0  0  0  0  0  0  0  0
    0.4590    1.8133    0.0000 O   0  0  0  0  0  0  0  0  0  0  0  0
  1  2  1  0
  2  3  1  0
  2  4  1  0
  4  5  1  1
  5  6  1  0
  6  7  1  0
  4  8  1  0
  8  9  2  0
  9 10  1  0
 10 11  1  0
 11 12  1  0
 11 13  2  0
 10 14  2  0
 14 15  1  0
 15  8  1  0
M  ISO  4   1   1   3   3   7   4  12   2
M  END
>  <symbol>  (1052) 
SerOxz

>  <m_abbr>  (1052) 
SerOxz

>  <m_name>  (1052) 
L-Ser-oxazole (C-terminal oxazole backbone)

>  <m_type>  (1052) 
aa

>  <m_subtype>  (1052) 
modified

>  <m_Rgroups>  (1052) 
[H],[OH],[H],[H]

>  <m_chem_types>  (1052) 
1:backbone_n,2:backbone_c,3:backbone_n_mod,4:hydroxyl

>  <m_activation_policy>  (1052) 
canonical-sites-v1

$$$$

     RDKit          2D

 16 16  0  0  0  0  0  0  0  0999 V2000
   -2.9456   -2.5507    0.0000 R   0  0  0  0  0  1  0  0  0  0  0  0
   -1.5673   -1.9589    0.0000 N   0  0  0  0  0  0  0  0  0  0  0  0
   -0.3656   -2.8566    0.0000 R   0  0  0  0  0  1  0  0  0  0  0  0
   -1.3907   -0.4693    0.0000 C   0  0  0  0  0  0  0  0  0  0  0  0
   -0.0124    0.1225    0.0000 C   0  0  0  0  0  0  0  0  0  0  0  0
    1.2766   -0.6447    0.0000 N   0  0  0  0  0  0  0  0  0  0  0  0
    2.4045    0.3441    0.0000 C   0  0  0  0  0  0  0  0  0  0  0  0
    3.8675    0.0127    0.0000 C   0  0  0  0  0  0  0  0  0  0  0  0
    4.3120   -1.4199    0.0000 R   0  0  0  0  0  1  0  0  0  0  0  0
    4.8859    1.1140    0.0000 O   0  0  0  0  0  0  0  0  0  0  0  0
    1.8127    1.7224    0.0000 C   0  0  0  0  0  0  0  0  0  0  0  0
    0.3190    1.5855    0.0000 O   0  0  0  0  0  0  0  0  0  0  0  0
   -2.5924    0.4284    0.0000 C   0  0  0  0  0  0  0  0  0  0  0  0
   -3.9707   -0.1634    0.0000 C   0  0  0  0  0  0  0  0  0  0  0  0
   -2.4158    1.9180    0.0000 O   0  0  0  0  0  0  0  0  0  0  0  0
   -3.6175    2.8157    0.0000 R   0  0  0  0  0  1  0  0  0  0  0  0
  1  2  1  0
  2  3  1  0
  4  2  1  1
  4  5  1  0
  5  6  2  0
  6  7  1  0
  7  8  1  0
  8  9  1  0
  8 10  2  0
  7 11  2  0
 11 12  1  0
  4 13  1  0
 13 14  1  1
 13 15  1  0
 15 16  1  0
 12  5  1  0
M  ISO  4   1   1   3   3   9   2  16   4
M  END
>  <symbol>  (1053) 
ThrOxz

>  <m_abbr>  (1053) 
ThrOxz

>  <m_name>  (1053) 
L-Thr-oxazole (C-terminal oxazole backbone)

>  <m_type>  (1053) 
aa

>  <m_subtype>  (1053) 
modified

>  <m_Rgroups>  (1053) 
[H],[OH],[H],[H]

>  <m_chem_types>  (1053) 
1:backbone_n,2:backbone_c,3:backbone_n_mod,4:hydroxyl

>  <m_activation_policy>  (1053) 
canonical-sites-v1

$$$$

     RDKit          2D

 16 16  0  0  0  0  0  0  0  0999 V2000
   -3.2946    1.8204    0.0000 R   0  0  0  0  0  1  0  0  0  0  0  0
   -1.9240    1.2109    0.0000 N   0  0  0  0  0  0  0  0  0  0  0  0
   -0.7108    2.0932    0.0000 R   0  0  0  0  0  1  0  0  0  0  0  0
   -1.7665   -0.2808    0.0000 C   0  0  0  0  0  0  0  0  0  0  0  0
   -0.3959   -0.8902    0.0000 C   0  0  0  0  0  0  0  0  0  0  0  0
    0.8173   -0.0080    0.0000 C   0  0  0  0  0  0  0  0  0  0  0  0
    0.6598    1.4837    0.0000 N   0  0  0  0  0  0  0  0  0  0  0  0
    1.8729    2.3660    0.0000 C   0  0  0  0  0  0  0  0  0  0  0  0
    3.2435    1.7565    0.0000 C   0  0  0  0  0  0  0  0  0  0  0  0
    3.4010    0.2648    0.0000 C   0  0  0  0  0  0  0  0  0  0  0  0
    2.1879   -0.6174    0.0000 C   0  0  0  0  0  0  0  0  0  0  0  0
    2.3454   -2.1092    0.0000 O   0  0  0  0  0  0  0  0  0  0  0  0
    3.7160   -2.7186    0.0000 R   0  0  0  0  0  1  0  0  0  0  0  0
   -2.9796   -1.1630    0.0000 C   0  0  0  0  0  0  0  0  0  0  0  0
   -4.3502   -0.5536    0.0000 R   0  0  0  0  0  1  0  0  0  0  0  0
   -2.8221   -2.6547    0.0000 O   0  0  0  0  0  0  0  0  0  0  0  0
  1  2  1  0
  2  3  1  0
  2  4  1  0
  4  5  1  1
  5  6  1  0
  6  7  2  0
  7  8  1  0
  8  9  2  0
  9 10  1  0
 10 11  2  0
 11 12  1  0
 12 13  1  0
  4 14  1  0
 14 15  1  0
 14 16  2  0
 11  6  1  0
M  ISO  4   1   1   3   3  13   4  15   2
M  END
>  <symbol>  (1054) 
Hpa

>  <m_abbr>  (1054) 
Hpa

>  <m_name>  (1054) 
L-3-Hydroxy-2-pyridyl-alanine (Hpa)

>  <m_type>  (1054) 
aa

>  <m_subtype>  (1054) 
modified

>  <m_Rgroups>  (1054) 
[H],[OH],[H],[H]

>  <m_chem_types>  (1054) 
1:backbone_n,2:backbone_c,3:backbone_n_mod,4:aryl_phenol_o

>  <m_activation_policy>  (1054) 
canonical-sites-v1

$$$$

     RDKit          2D

 10 10  0  0  0  0  0  0  0  0999 V2000
    3.7500    0.0000    0.0000 R   0  0  0  0  0  1  0  0  0  0  0  0
    2.2500   -0.0000    0.0000 C   0  0  0  0  0  0  0  0  0  0  0  0
    1.5000   -1.2990    0.0000 C   0  0  0  0  0  0  0  0  0  0  0  0
   -0.0000   -1.2990    0.0000 C   0  0  0  0  0  0  0  0  0  0  0  0
   -0.7500   -0.0000    0.0000 C   0  0  0  0  0  0  0  0  0  0  0  0
   -2.2500    0.0000    0.0000 C   0  0  0  0  0  0  0  0  0  0  0  0
   -3.0000    1.2990    0.0000 R   0  0  0  0  0  1  0  0  0  0  0  0
   -3.0000   -1.2990    0.0000 O   0  0  0  0  0  0  0  0  0  0  0  0
    0.0000    1.2990    0.0000 C   0  0  0  0  0  0  0  0  0  0  0  0
    1.5000    1.2990    0.0000 N   0  0  0  0  0  0  0  0  0  0  0  0
  1  2  1  0
  2  3  1  0
  3  4  2  0
  4  5  1  0
  5  6  1  0
  6  7  1  0
  6  8  2  0
  5  9  2  0
  9 10  1  0
 10  2  2  0
M  ISO  2   1   1   7   2
M  END
>  <symbol>  (1055) 
Pca

>  <m_abbr>  (1055) 
Pca

>  <m_name>  (1055) 
Pyridine-2-carboxylate (NRP N-terminal acyl cap)

>  <m_type>  (1055) 
cap

>  <m_subtype>  (1055) 
modified

>  <m_Rgroups>  (1055) 
[H],[OH]

>  <m_chem_types>  (1055) 
1:aryl_c_anchor,2:backbone_c

>  <m_activation_policy>  (1055) 
canonical-sites-v1

$$$$

     RDKit          2D

  9  9  0  0  0  0  0  0  0  0999 V2000
   -2.2557   -1.9848    0.0000 R   0  0  0  0  0  1  0  0  0  0  0  0
   -1.4006   -0.7525    0.0000 C   0  0  0  0  0  0  0  0  0  0  0  0
   -2.0402    0.6043    0.0000 C   0  0  0  0  0  0  0  0  0  0  0  0
   -1.1851    1.8367    0.0000 C   0  0  0  0  0  0  0  0  0  0  0  0
    0.3098    1.7123    0.0000 C   0  0  0  0  0  0  0  0  0  0  0  0
    0.9494    0.3555    0.0000 C   0  0  0  0  0  0  0  0  0  0  0  0
    2.4443    0.2311    0.0000 O   0  0  0  0  0  0  0  0  0  0  0  0
    3.0839   -1.1257    0.0000 R   0  0  0  0  0  1  0  0  0  0  0  0
    0.0943   -0.8769    0.0000 N   0  0  0  0  0  0  0  0  0  0  0  0
  1  2  1  0
  2  3  1  0
  3  4  2  0
  4  5  1  0
  5  6  2  0
  6  7  1  0
  7  8  1  0
  6  9  1  0
  9  2  2  0
M  ISO  2   1   1   8   4
M  END
>  <symbol>  (1056) 
Hpic

>  <m_abbr>  (1056) 
Hpic

>  <m_name>  (1056) 
3-Hydroxypyridine-2-carboxylate (NRP cap)

>  <m_type>  (1056) 
cap

>  <m_subtype>  (1056) 
modified

>  <m_Rgroups>  (1056) 
[H],None,None,[H]

>  <m_chem_types>  (1056) 
1:aryl_c_anchor,4:aryl_phenol_o

>  <m_activation_policy>  (1056) 
canonical-sites-v1

$$$$

     RDKit          2D

 11 11  0  0  0  0  0  0  0  0999 V2000
    1.5291   -2.1701    0.0000 R   0  0  0  0  0  1  0  0  0  0  0  0
    0.3263   -1.2739    0.0000 N   0  0  0  0  0  0  0  0  0  0  0  0
   -1.0513   -1.8676    0.0000 C   0  0  0  0  0  0  0  0  0  0  0  0
   -2.2541   -0.9714    0.0000 C   0  0  0  0  0  0  0  0  0  0  0  0
   -2.0795    0.5184    0.0000 C   0  0  0  0  0  0  0  0  0  0  0  0
   -3.2824    1.4145    0.0000 O   0  0  0  0  0  0  0  0  0  0  0  0
   -0.7020    1.1120    0.0000 C   0  0  0  0  0  0  0  0  0  0  0  0
    0.5009    0.2159    0.0000 C   0  0  0  0  0  0  0  0  0  0  0  0
    1.8784    0.8095    0.0000 C   0  0  0  0  0  0  0  0  0  0  0  0
    3.0813   -0.0866    0.0000 R   0  0  0  0  0  1  0  0  0  0  0  0
    2.0531    2.2993    0.0000 O   0  0  0  0  0  0  0  0  0  0  0  0
  1  2  1  0
  2  3  1  0
  3  4  1  0
  4  5  1  0
  5  6  2  0
  5  7  1  0
  7  8  1  0
  8  9  1  6
  9 10  1  0
  9 11  2  0
  8  2  1  0
M  ISO  2   1   1  10   2
M  END
>  <symbol>  (1057) 
oxoPip

>  <m_abbr>  (1057) 
oxoPip

>  <m_name>  (1057) 
(2S)-3-oxopipecolinic acid

>  <m_type>  (1057) 
aa

>  <m_subtype>  (1057) 
modified

>  <m_Rgroups>  (1057) 
[H],[OH]

>  <m_chem_types>  (1057) 
1:backbone_n,2:backbone_c

>  <m_activation_policy>  (1057) 
canonical-sites-v1

$$$$

     RDKit          2D

 11 11  0  0  0  0  0  0  0  0999 V2000
    1.5291   -2.1701    0.0000 R   0  0  0  0  0  1  0  0  0  0  0  0
    0.3263   -1.2739    0.0000 N   0  0  0  0  0  0  0  0  0  0  0  0
   -1.0513   -1.8676    0.0000 C   0  0  0  0  0  0  0  0  0  0  0  0
   -2.2541   -0.9714    0.0000 C   0  0  0  0  0  0  0  0  0  0  0  0
   -2.0795    0.5184    0.0000 C   0  0  0  0  0  0  0  0  0  0  0  0
   -3.2824    1.4145    0.0000 O   0  0  0  0  0  0  0  0  0  0  0  0
   -0.7020    1.1120    0.0000 C   0  0  0  0  0  0  0  0  0  0  0  0
    0.5009    0.2159    0.0000 C   0  0  0  0  0  0  0  0  0  0  0  0
    1.8784    0.8095    0.0000 C   0  0  0  0  0  0  0  0  0  0  0  0
    3.0813   -0.0866    0.0000 R   0  0  0  0  0  1  0  0  0  0  0  0
    2.0531    2.2993    0.0000 O   0  0  0  0  0  0  0  0  0  0  0  0
  1  2  1  0
  2  3  1  0
  3  4  1  0
  4  5  1  0
  5  6  2  0
  5  7  1  0
  7  8  1  0
  8  9  1  1
  9 10  1  0
  9 11  2  0
  8  2  1  0
M  ISO  2   1   1  10   2
M  END
>  <symbol>  (1058) 
D_oxoPip

>  <m_abbr>  (1058) 
D_oxoPip

>  <m_name>  (1058) 
(2R)-3-oxopipecolinic acid

>  <m_type>  (1058) 
aa

>  <m_subtype>  (1058) 
modified

>  <m_Rgroups>  (1058) 
[H],[OH]

>  <m_chem_types>  (1058) 
1:backbone_n,2:backbone_c

>  <m_activation_policy>  (1058) 
canonical-sites-v1

$$$$

     RDKit          2D

 11 11  0  0  0  0  0  0  0  0999 V2000
    0.8129   -2.3200    0.0000 R   0  0  0  0  0  1  0  0  0  0  0  0
   -0.0086   -1.0650    0.0000 N   0  0  0  0  0  0  0  0  0  0  0  0
   -1.5062   -1.1490    0.0000 C   0  0  0  0  0  0  0  0  0  0  0  0
   -2.3278    0.1061    0.0000 C   0  0  0  0  0  0  0  0  0  0  0  0
   -3.8254    0.0221    0.0000 O   0  0  0  0  0  0  0  0  0  0  0  0
   -1.6517    1.4450    0.0000 C   0  0  0  0  0  0  0  0  0  0  0  0
   -0.1540    1.5290    0.0000 C   0  0  0  0  0  0  0  0  0  0  0  0
    0.6675    0.2740    0.0000 C   0  0  0  0  0  0  0  0  0  0  0  0
    2.1652    0.3579    0.0000 C   0  0  0  0  0  0  0  0  0  0  0  0
    2.9867   -0.8971    0.0000 R   0  0  0  0  0  1  0  0  0  0  0  0
    2.8413    1.6969    0.0000 O   0  0  0  0  0  0  0  0  0  0  0  0
  1  2  1  0
  2  3  1  0
  3  4  1  0
  4  5  2  0
  4  6  1  0
  6  7  1  0
  7  8  1  0
  8  9  1  6
  9 10  1  0
  9 11  2  0
  8  2  1  0
M  ISO  2   1   1  10   2
M  END
>  <symbol>  (1059) 
gamOxoPip

>  <m_abbr>  (1059) 
gamOxoPip

>  <m_name>  (1059) 
(2S)-4-oxopipecolinic acid

>  <m_type>  (1059) 
aa

>  <m_subtype>  (1059) 
modified

>  <m_Rgroups>  (1059) 
[H],[OH]

>  <m_chem_types>  (1059) 
1:backbone_n,2:backbone_c

>  <m_activation_policy>  (1059) 
canonical-sites-v1

$$$$

     RDKit          2D

 11 11  0  0  0  0  0  0  0  0999 V2000
    0.8129   -2.3200    0.0000 R   0  0  0  0  0  1  0  0  0  0  0  0
   -0.0086   -1.0650    0.0000 N   0  0  0  0  0  0  0  0  0  0  0  0
   -1.5062   -1.1490    0.0000 C   0  0  0  0  0  0  0  0  0  0  0  0
   -2.3278    0.1061    0.0000 C   0  0  0  0  0  0  0  0  0  0  0  0
   -3.8254    0.0221    0.0000 O   0  0  0  0  0  0  0  0  0  0  0  0
   -1.6517    1.4450    0.0000 C   0  0  0  0  0  0  0  0  0  0  0  0
   -0.1540    1.5290    0.0000 C   0  0  0  0  0  0  0  0  0  0  0  0
    0.6675    0.2740    0.0000 C   0  0  0  0  0  0  0  0  0  0  0  0
    2.1652    0.3579    0.0000 C   0  0  0  0  0  0  0  0  0  0  0  0
    2.9867   -0.8971    0.0000 R   0  0  0  0  0  1  0  0  0  0  0  0
    2.8413    1.6969    0.0000 O   0  0  0  0  0  0  0  0  0  0  0  0
  1  2  1  0
  2  3  1  0
  3  4  1  0
  4  5  2  0
  4  6  1  0
  6  7  1  0
  7  8  1  0
  8  9  1  1
  9 10  1  0
  9 11  2  0
  8  2  1  0
M  ISO  2   1   1  10   2
M  END
>  <symbol>  (1060) 
D_gamOxoPip

>  <m_abbr>  (1060) 
D_gamOxoPip

>  <m_name>  (1060) 
(2R)-4-oxopipecolinic acid

>  <m_type>  (1060) 
aa

>  <m_subtype>  (1060) 
modified

>  <m_Rgroups>  (1060) 
[H],[OH]

>  <m_chem_types>  (1060) 
1:backbone_n,2:backbone_c

>  <m_activation_policy>  (1060) 
canonical-sites-v1

$$$$

     RDKit          2D

 14 13  0  0  0  0  0  0  0  0999 V2000
   -3.8537   -0.5799    0.0000 R   0  0  0  0  0  1  0  0  0  0  0  0
   -2.4576   -1.1282    0.0000 N   0  0  0  0  0  0  0  0  0  0  0  0
   -2.2344   -2.6115    0.0000 C   0  0  0  0  0  0  0  0  0  0  0  0
   -1.2846   -0.1933    0.0000 C   0  0  0  0  0  0  0  0  0  0  0  0
    0.1116   -0.7417    0.0000 C   0  0  0  0  0  0  0  0  0  0  0  0
    1.2846    0.1933    0.0000 C   0  0  0  0  0  0  0  0  0  0  0  0
    1.0614    1.6766    0.0000 C   0  0  0  0  0  0  0  0  0  0  0  0
    2.6808   -0.3551    0.0000 C   0  0  0  0  0  0  0  0  0  0  0  0
    4.0769   -0.9034    0.0000 Cl  0  0  0  0  0  0  0  0  0  0  0  0
    3.2291    1.0411    0.0000 Cl  0  0  0  0  0  0  0  0  0  0  0  0
    2.1324   -1.7512    0.0000 Cl  0  0  0  0  0  0  0  0  0  0  0  0
   -1.5078    1.2900    0.0000 C   0  0  0  0  0  0  0  0  0  0  0  0
   -0.3348    2.2250    0.0000 R   0  0  0  0  0  1  0  0  0  0  0  0
   -2.9040    1.8384    0.0000 O   0  0  0  0  0  0  0  0  0  0  0  0
  1  2  1  0
  2  3  1  0
  2  4  1  0
  4  5  1  6
  5  6  1  0
  6  7  1  1
  6  8  1  0
  8  9  1  0
  8 10  1  0
  8 11  1  0
  4 12  1  0
 12 13  1  0
 12 14  2  0
M  ISO  2   1   1  13   2
M  END
>  <symbol>  (1061) 
meAla_CCl3Me2

>  <m_abbr>  (1061) 
meAla_CCl3Me2

>  <m_name>  (1061) 
N-Me-(2S,4S)-2-amino-4-methyl-5,5,5-trichloropentanoic acid

>  <m_type>  (1061) 
aa

>  <m_subtype>  (1061) 
modified

>  <m_Rgroups>  (1061) 
[H],[OH]

>  <m_chem_types>  (1061) 
1:backbone_n,2:backbone_c

>  <m_activation_policy>  (1061) 
canonical-sites-v1

$$$$

     RDKit          2D

 14 13  0  0  0  0  0  0  0  0999 V2000
   -3.8537   -0.5799    0.0000 R   0  0  0  0  0  1  0  0  0  0  0  0
   -2.4576   -1.1282    0.0000 N   0  0  0  0  0  0  0  0  0  0  0  0
   -2.2344   -2.6115    0.0000 C   0  0  0  0  0  0  0  0  0  0  0  0
   -1.2846   -0.1933    0.0000 C   0  0  0  0  0  0  0  0  0  0  0  0
    0.1116   -0.7417    0.0000 C   0  0  0  0  0  0  0  0  0  0  0  0
    1.2846    0.1933    0.0000 C   0  0  0  0  0  0  0  0  0  0  0  0
    1.0614    1.6766    0.0000 C   0  0  0  0  0  0  0  0  0  0  0  0
    2.6808   -0.3551    0.0000 C   0  0  0  0  0  0  0  0  0  0  0  0
    4.0769   -0.9034    0.0000 Cl  0  0  0  0  0  0  0  0  0  0  0  0
    3.2291    1.0411    0.0000 Cl  0  0  0  0  0  0  0  0  0  0  0  0
    2.1324   -1.7512    0.0000 Cl  0  0  0  0  0  0  0  0  0  0  0  0
   -1.5078    1.2900    0.0000 C   0  0  0  0  0  0  0  0  0  0  0  0
   -0.3348    2.2250    0.0000 R   0  0  0  0  0  1  0  0  0  0  0  0
   -2.9040    1.8384    0.0000 O   0  0  0  0  0  0  0  0  0  0  0  0
  1  2  1  0
  2  3  1  0
  2  4  1  0
  4  5  1  1
  5  6  1  0
  6  7  1  1
  6  8  1  0
  8  9  1  0
  8 10  1  0
  8 11  1  0
  4 12  1  0
 12 13  1  0
 12 14  2  0
M  ISO  2   1   1  13   2
M  END
>  <symbol>  (1062) 
D_meAla_CCl3Me2

>  <m_abbr>  (1062) 
D_meAla_CCl3Me2

>  <m_name>  (1062) 
N-Me-(2R,4S)-2-amino-4-methyl-5,5,5-trichloropentanoic acid

>  <m_type>  (1062) 
aa

>  <m_subtype>  (1062) 
modified

>  <m_Rgroups>  (1062) 
[H],[OH]

>  <m_chem_types>  (1062) 
1:backbone_n,2:backbone_c

>  <m_activation_policy>  (1062) 
canonical-sites-v1

$$$$

     RDKit          2D

 14 13  0  0  0  0  0  0  0  0999 V2000
   -3.8537   -0.5799    0.0000 R   0  0  0  0  0  1  0  0  0  0  0  0
   -2.4576   -1.1282    0.0000 N   0  0  0  0  0  0  0  0  0  0  0  0
   -2.2344   -2.6115    0.0000 C   0  0  0  0  0  0  0  0  0  0  0  0
   -1.2846   -0.1933    0.0000 C   0  0  0  0  0  0  0  0  0  0  0  0
    0.1116   -0.7417    0.0000 C   0  0  0  0  0  0  0  0  0  0  0  0
    1.2846    0.1933    0.0000 C   0  0  0  0  0  0  0  0  0  0  0  0
    1.0614    1.6766    0.0000 C   0  0  0  0  0  0  0  0  0  0  0  0
    2.6808   -0.3551    0.0000 C   0  0  0  0  0  0  0  0  0  0  0  0
    4.0769   -0.9034    0.0000 Cl  0  0  0  0  0  0  0  0  0  0  0  0
    3.2291    1.0411    0.0000 Cl  0  0  0  0  0  0  0  0  0  0  0  0
    2.1324   -1.7512    0.0000 Cl  0  0  0  0  0  0  0  0  0  0  0  0
   -1.5078    1.2900    0.0000 C   0  0  0  0  0  0  0  0  0  0  0  0
   -0.3348    2.2250    0.0000 R   0  0  0  0  0  1  0  0  0  0  0  0
   -2.9040    1.8384    0.0000 O   0  0  0  0  0  0  0  0  0  0  0  0
  1  2  1  0
  2  3  1  0
  2  4  1  0
  4  5  1  6
  5  6  1  0
  6  7  1  6
  6  8  1  0
  8  9  1  0
  8 10  1  0
  8 11  1  0
  4 12  1  0
 12 13  1  0
 12 14  2  0
M  ISO  2   1   1  13   2
M  END
>  <symbol>  (1063) 
meAla_CCl3Me2b

>  <m_abbr>  (1063) 
meAla_CCl3Me2b

>  <m_name>  (1063) 
N-Me-(2S,4R)-2-amino-4-methyl-5,5,5-trichloropentanoic acid

>  <m_type>  (1063) 
aa

>  <m_subtype>  (1063) 
modified

>  <m_Rgroups>  (1063) 
[H],[OH]

>  <m_chem_types>  (1063) 
1:backbone_n,2:backbone_c

>  <m_activation_policy>  (1063) 
canonical-sites-v1

$$$$

     RDKit          2D

 14 13  0  0  0  0  0  0  0  0999 V2000
   -3.8537   -0.5799    0.0000 R   0  0  0  0  0  1  0  0  0  0  0  0
   -2.4576   -1.1282    0.0000 N   0  0  0  0  0  0  0  0  0  0  0  0
   -2.2344   -2.6115    0.0000 C   0  0  0  0  0  0  0  0  0  0  0  0
   -1.2846   -0.1933    0.0000 C   0  0  0  0  0  0  0  0  0  0  0  0
    0.1116   -0.7417    0.0000 C   0  0  0  0  0  0  0  0  0  0  0  0
    1.2846    0.1933    0.0000 C   0  0  0  0  0  0  0  0  0  0  0  0
    1.0614    1.6766    0.0000 C   0  0  0  0  0  0  0  0  0  0  0  0
    2.6808   -0.3551    0.0000 C   0  0  0  0  0  0  0  0  0  0  0  0
    4.0769   -0.9034    0.0000 Cl  0  0  0  0  0  0  0  0  0  0  0  0
    3.2291    1.0411    0.0000 Cl  0  0  0  0  0  0  0  0  0  0  0  0
    2.1324   -1.7512    0.0000 Cl  0  0  0  0  0  0  0  0  0  0  0  0
   -1.5078    1.2900    0.0000 C   0  0  0  0  0  0  0  0  0  0  0  0
   -0.3348    2.2250    0.0000 R   0  0  0  0  0  1  0  0  0  0  0  0
   -2.9040    1.8384    0.0000 O   0  0  0  0  0  0  0  0  0  0  0  0
  1  2  1  0
  2  3  1  0
  2  4  1  0
  4  5  1  1
  5  6  1  0
  6  7  1  6
  6  8  1  0
  8  9  1  0
  8 10  1  0
  8 11  1  0
  4 12  1  0
 12 13  1  0
 12 14  2  0
M  ISO  2   1   1  13   2
M  END
>  <symbol>  (1064) 
D_meAla_CCl3Me2b

>  <m_abbr>  (1064) 
D_meAla_CCl3Me2b

>  <m_name>  (1064) 
N-Me-(2R,4R)-2-amino-4-methyl-5,5,5-trichloropentanoic acid

>  <m_type>  (1064) 
aa

>  <m_subtype>  (1064) 
modified

>  <m_Rgroups>  (1064) 
[H],[OH]

>  <m_chem_types>  (1064) 
1:backbone_n,2:backbone_c

>  <m_activation_policy>  (1064) 
canonical-sites-v1

$$$$

     RDKit          2D

 13 12  0  0  0  0  0  0  0  0999 V2000
   -3.6603   -0.5247    0.0000 R   0  0  0  0  0  1  0  0  0  0  0  0
   -2.2769   -1.1044    0.0000 N   0  0  0  0  0  0  0  0  0  0  0  0
   -2.0872   -2.5924    0.0000 C   0  0  0  0  0  0  0  0  0  0  0  0
   -1.0831   -0.1962    0.0000 C   0  0  0  0  0  0  0  0  0  0  0  0
    0.3004   -0.7759    0.0000 C   0  0  0  0  0  0  0  0  0  0  0  0
    1.4942    0.1323    0.0000 C   0  0  0  0  0  0  0  0  0  0  0  0
    1.3045    1.6202    0.0000 C   0  0  0  0  0  0  0  0  0  0  0  0
    2.8776   -0.4475    0.0000 C   0  0  0  0  0  0  0  0  0  0  0  0
    4.0714    0.4608    0.0000 R   0  0  0  0  0  1  0  0  0  0  0  0
    3.0672   -1.9354    0.0000 Cl  0  0  0  0  0  0  0  0  0  0  0  0
   -1.2727    1.2918    0.0000 C   0  0  0  0  0  0  0  0  0  0  0  0
   -2.6562    1.8715    0.0000 R   0  0  0  0  0  1  0  0  0  0  0  0
   -0.0789    2.2000    0.0000 O   0  0  0  0  0  0  0  0  0  0  0  0
  1  2  1  0
  2  3  1  0
  2  4  1  0
  4  5  1  6
  5  6  1  0
  6  7  1  1
  6  8  1  0
  8  9  1  0
  8 10  1  0
  4 11  1  0
 11 12  1  0
 11 13  2  0
M  ISO  3   1   1   9   4  12   2
M  END
>  <symbol>  (1065) 
meAla_CHCl2Me2

>  <m_abbr>  (1065) 
meAla_CHCl2Me2

>  <m_name>  (1065) 
N-Me-(2S,4S)-2-amino-4-methyl-5,5-dichloropentanoic acid

>  <m_type>  (1065) 
aa

>  <m_subtype>  (1065) 
modified

>  <m_Rgroups>  (1065) 
[H],[OH],None,[Cl]

>  <m_chem_types>  (1065) 
1:backbone_n,2:backbone_c,4:alkyl_halide_c

>  <m_activation_policy>  (1065) 
canonical-sites-v1

$$$$

     RDKit          2D

 13 12  0  0  0  0  0  0  0  0999 V2000
   -3.6603   -0.5247    0.0000 R   0  0  0  0  0  1  0  0  0  0  0  0
   -2.2769   -1.1044    0.0000 N   0  0  0  0  0  0  0  0  0  0  0  0
   -2.0872   -2.5924    0.0000 C   0  0  0  0  0  0  0  0  0  0  0  0
   -1.0831   -0.1962    0.0000 C   0  0  0  0  0  0  0  0  0  0  0  0
    0.3004   -0.7759    0.0000 C   0  0  0  0  0  0  0  0  0  0  0  0
    1.4942    0.1323    0.0000 C   0  0  0  0  0  0  0  0  0  0  0  0
    1.3045    1.6202    0.0000 C   0  0  0  0  0  0  0  0  0  0  0  0
    2.8776   -0.4475    0.0000 C   0  0  0  0  0  0  0  0  0  0  0  0
    4.0714    0.4608    0.0000 R   0  0  0  0  0  1  0  0  0  0  0  0
    3.0672   -1.9354    0.0000 Cl  0  0  0  0  0  0  0  0  0  0  0  0
   -1.2727    1.2918    0.0000 C   0  0  0  0  0  0  0  0  0  0  0  0
   -2.6562    1.8715    0.0000 R   0  0  0  0  0  1  0  0  0  0  0  0
   -0.0789    2.2000    0.0000 O   0  0  0  0  0  0  0  0  0  0  0  0
  1  2  1  0
  2  3  1  0
  2  4  1  0
  4  5  1  1
  5  6  1  0
  6  7  1  1
  6  8  1  0
  8  9  1  0
  8 10  1  0
  4 11  1  0
 11 12  1  0
 11 13  2  0
M  ISO  3   1   1   9   4  12   2
M  END
>  <symbol>  (1066) 
D_meAla_CHCl2Me2

>  <m_abbr>  (1066) 
D_meAla_CHCl2Me2

>  <m_name>  (1066) 
N-Me-(2R,4S)-2-amino-4-methyl-5,5-dichloropentanoic acid

>  <m_type>  (1066) 
aa

>  <m_subtype>  (1066) 
modified

>  <m_Rgroups>  (1066) 
[H],[OH],None,[Cl]

>  <m_chem_types>  (1066) 
1:backbone_n,2:backbone_c,4:alkyl_halide_c

>  <m_activation_policy>  (1066) 
canonical-sites-v1

$$$$

     RDKit          2D

 14 13  0  0  0  0  0  0  0  0999 V2000
   -3.8537   -0.5799    0.0000 R   0  0  0  0  0  1  0  0  0  0  0  0
   -2.4576   -1.1282    0.0000 N   0  0  0  0  0  0  0  0  0  0  0  0
   -2.2344   -2.6115    0.0000 C   0  0  0  0  0  0  0  0  0  0  0  0
   -1.2846   -0.1933    0.0000 C   0  0  0  0  0  0  0  0  0  0  0  0
    0.1116   -0.7417    0.0000 C   0  0  0  0  0  0  0  0  0  0  0  0
    1.2846    0.1933    0.0000 C   0  0  0  0  0  0  0  0  0  0  0  0
    1.0614    1.6766    0.0000 C   0  0  0  0  0  0  0  0  0  0  0  0
    2.6808   -0.3551    0.0000 C   0  0  0  0  0  0  0  0  0  0  0  0
    4.0769   -0.9034    0.0000 Cl  0  0  0  0  0  0  0  0  0  0  0  0
    3.2291    1.0411    0.0000 Cl  0  0  0  0  0  0  0  0  0  0  0  0
    2.1324   -1.7512    0.0000 Cl  0  0  0  0  0  0  0  0  0  0  0  0
   -1.5078    1.2900    0.0000 C   0  0  0  0  0  0  0  0  0  0  0  0
   -0.3348    2.2250    0.0000 R   0  0  0  0  0  1  0  0  0  0  0  0
   -2.9040    1.8384    0.0000 O   0  0  0  0  0  0  0  0  0  0  0  0
  1  2  1  0
  2  3  1  0
  2  4  1  0
  4  5  2  3
  5  6  1  0
  6  7  1  1
  6  8  1  0
  8  9  1  0
  8 10  1  0
  8 11  1  0
  4 12  1  0
 12 13  1  0
 12 14  2  0
M  ISO  2   1   1  13   2
M  END
>  <symbol>  (1067) 
meDha_CCl3Me2

>  <m_abbr>  (1067) 
meDha_CCl3Me2

>  <m_name>  (1067) 
N-Me-dehydro-2-amino-4-methyl-5,5,5-trichloropentanoic acid

>  <m_type>  (1067) 
aa

>  <m_subtype>  (1067) 
modified

>  <m_Rgroups>  (1067) 
[H],[OH]

>  <m_chem_types>  (1067) 
1:backbone_n,2:backbone_c

>  <m_activation_policy>  (1067) 
canonical-sites-v1

$$$$

     RDKit          2D

 14 13  0  0  0  0  0  0  0  0999 V2000
   -3.8537   -0.5799    0.0000 R   0  0  0  0  0  1  0  0  0  0  0  0
   -2.4576   -1.1282    0.0000 N   0  0  0  0  0  0  0  0  0  0  0  0
   -2.2344   -2.6115    0.0000 C   0  0  0  0  0  0  0  0  0  0  0  0
   -1.2846   -0.1933    0.0000 C   0  0  0  0  0  0  0  0  0  0  0  0
    0.1116   -0.7417    0.0000 C   0  0  0  0  0  0  0  0  0  0  0  0
    1.2846    0.1933    0.0000 C   0  0  0  0  0  0  0  0  0  0  0  0
    1.0614    1.6766    0.0000 C   0  0  0  0  0  0  0  0  0  0  0  0
    2.6808   -0.3551    0.0000 C   0  0  0  0  0  0  0  0  0  0  0  0
    4.0769   -0.9034    0.0000 Cl  0  0  0  0  0  0  0  0  0  0  0  0
    3.2291    1.0411    0.0000 Cl  0  0  0  0  0  0  0  0  0  0  0  0
    2.1324   -1.7512    0.0000 Cl  0  0  0  0  0  0  0  0  0  0  0  0
   -1.5078    1.2900    0.0000 C   0  0  0  0  0  0  0  0  0  0  0  0
   -0.3348    2.2250    0.0000 R   0  0  0  0  0  1  0  0  0  0  0  0
   -2.9040    1.8384    0.0000 O   0  0  0  0  0  0  0  0  0  0  0  0
  1  2  1  0
  2  3  1  0
  2  4  1  0
  4  5  2  3
  5  6  1  0
  6  7  1  6
  6  8  1  0
  8  9  1  0
  8 10  1  0
  8 11  1  0
  4 12  1  0
 12 13  1  0
 12 14  2  0
M  ISO  2   1   1  13   2
M  END
>  <symbol>  (1068) 
meDha_CCl3Me2b

>  <m_abbr>  (1068) 
meDha_CCl3Me2b

>  <m_name>  (1068) 
N-Me-dehydro-2-amino-4-methyl-5,5,5-trichloropentanoic acid (4R)

>  <m_type>  (1068) 
aa

>  <m_subtype>  (1068) 
modified

>  <m_Rgroups>  (1068) 
[H],[OH]

>  <m_chem_types>  (1068) 
1:backbone_n,2:backbone_c

>  <m_activation_policy>  (1068) 
canonical-sites-v1

$$$$

     RDKit          2D

 13 12  0  0  0  0  0  0  0  0999 V2000
   -3.6603   -0.5247    0.0000 R   0  0  0  0  0  1  0  0  0  0  0  0
   -2.2769   -1.1044    0.0000 N   0  0  0  0  0  0  0  0  0  0  0  0
   -2.0872   -2.5924    0.0000 C   0  0  0  0  0  0  0  0  0  0  0  0
   -1.0831   -0.1962    0.0000 C   0  0  0  0  0  0  0  0  0  0  0  0
    0.3004   -0.7759    0.0000 C   0  0  0  0  0  0  0  0  0  0  0  0
    1.4942    0.1323    0.0000 C   0  0  0  0  0  0  0  0  0  0  0  0
    1.3045    1.6202    0.0000 C   0  0  0  0  0  0  0  0  0  0  0  0
    2.8776   -0.4475    0.0000 C   0  0  0  0  0  0  0  0  0  0  0  0
    4.0714    0.4608    0.0000 R   0  0  0  0  0  1  0  0  0  0  0  0
    3.0672   -1.9354    0.0000 Cl  0  0  0  0  0  0  0  0  0  0  0  0
   -1.2727    1.2918    0.0000 C   0  0  0  0  0  0  0  0  0  0  0  0
   -2.6562    1.8715    0.0000 R   0  0  0  0  0  1  0  0  0  0  0  0
   -0.0789    2.2000    0.0000 O   0  0  0  0  0  0  0  0  0  0  0  0
  1  2  1  0
  2  3  1  0
  2  4  1  0
  4  5  2  3
  5  6  1  0
  6  7  1  1
  6  8  1  0
  8  9  1  0
  8 10  1  0
  4 11  1  0
 11 12  1  0
 11 13  2  0
M  ISO  3   1   1   9   4  12   2
M  END
>  <symbol>  (1069) 
meDha_CHCl2Me2

>  <m_abbr>  (1069) 
meDha_CHCl2Me2

>  <m_name>  (1069) 
N-Me-dehydro-2-amino-4-methyl-5,5-dichloropentanoic acid

>  <m_type>  (1069) 
aa

>  <m_subtype>  (1069) 
modified

>  <m_Rgroups>  (1069) 
[H],[OH],None,[Cl]

>  <m_chem_types>  (1069) 
1:backbone_n,2:backbone_c,4:alkyl_halide_c

>  <m_activation_policy>  (1069) 
canonical-sites-v1

$$$$

     RDKit          2D

  9  9  0  0  0  0  0  0  0  0999 V2000
    0.5115   -2.3139    0.0000 R   0  0  0  0  0  1  0  0  0  0  0  0
    0.8624   -0.8555    0.0000 N   0  0  0  0  0  0  0  0  0  0  0  0
    2.2485   -0.2821    0.0000 C   0  0  0  0  0  0  0  0  0  0  0  0
    2.1314    1.2133    0.0000 C   0  0  0  0  0  0  0  0  0  0  0  0
    0.6730    1.5641    0.0000 C   0  0  0  0  0  0  0  0  0  0  0  0
   -0.1113    0.2855    0.0000 C   0  0  0  0  0  0  0  0  0  0  0  0
   -1.6067    0.1685    0.0000 C   0  0  0  0  0  0  0  0  0  0  0  0
   -2.4558    1.4051    0.0000 R   0  0  0  0  0  1  0  0  0  0  0  0
   -2.2531   -1.1851    0.0000 O   0  0  0  0  0  0  0  0  0  0  0  0
  1  2  1  0
  2  3  1  0
  3  4  1  0
  4  5  2  0
  5  6  1  0
  6  7  1  1
  7  8  1  0
  7  9  2  0
  6  2  1  0
M  ISO  2   1   1   8   2
M  END
>  <symbol>  (1070) 
DhPro34

>  <m_abbr>  (1070) 
DhPro34

>  <m_name>  (1070) 
L-3,4-dehydroproline (Î”3,4-Pro)

>  <m_type>  (1070) 
aa

>  <m_subtype>  (1070) 
modified

>  <m_Rgroups>  (1070) 
[H],[OH]

>  <m_chem_types>  (1070) 
1:backbone_n,2:backbone_c

>  <m_activation_policy>  (1070) 
canonical-sites-v1

$$$$

     RDKit          2D

  9  9  0  0  0  0  0  0  0  0999 V2000
    0.5115   -2.3139    0.0000 R   0  0  0  0  0  1  0  0  0  0  0  0
    0.8624   -0.8555    0.0000 N   0  0  0  0  0  0  0  0  0  0  0  0
    2.2485   -0.2821    0.0000 C   0  0  0  0  0  0  0  0  0  0  0  0
    2.1314    1.2133    0.0000 C   0  0  0  0  0  0  0  0  0  0  0  0
    0.6730    1.5641    0.0000 C   0  0  0  0  0  0  0  0  0  0  0  0
   -0.1113    0.2855    0.0000 C   0  0  0  0  0  0  0  0  0  0  0  0
   -1.6067    0.1685    0.0000 C   0  0  0  0  0  0  0  0  0  0  0  0
   -2.4558    1.4051    0.0000 R   0  0  0  0  0  1  0  0  0  0  0  0
   -2.2531   -1.1851    0.0000 O   0  0  0  0  0  0  0  0  0  0  0  0
  1  2  1  0
  2  3  1  0
  3  4  1  0
  4  5  2  0
  5  6  1  0
  6  7  1  6
  7  8  1  0
  7  9  2  0
  6  2  1  0
M  ISO  2   1   1   8   2
M  END
>  <symbol>  (1071) 
D_DhPro34

>  <m_abbr>  (1071) 
D_DhPro34

>  <m_name>  (1071) 
D-3,4-dehydroproline (Î”3,4-Pro)

>  <m_type>  (1071) 
aa

>  <m_subtype>  (1071) 
modified

>  <m_Rgroups>  (1071) 
[H],[OH]

>  <m_chem_types>  (1071) 
1:backbone_n,2:backbone_c

>  <m_activation_policy>  (1071) 
canonical-sites-v1

$$$$

     RDKit          2D

  9  9  0  0  0  0  0  0  0  0999 V2000
    0.5115   -2.3139    0.0000 R   0  0  0  0  0  1  0  0  0  0  0  0
    0.8624   -0.8555    0.0000 N   0  0  0  0  0  0  0  0  0  0  0  0
    2.2485   -0.2821    0.0000 C   0  0  0  0  0  0  0  0  0  0  0  0
    2.1314    1.2133    0.0000 C   0  0  0  0  0  0  0  0  0  0  0  0
    0.6730    1.5641    0.0000 C   0  0  0  0  0  0  0  0  0  0  0  0
   -0.1113    0.2855    0.0000 C   0  0  0  0  0  0  0  0  0  0  0  0
   -1.6067    0.1685    0.0000 C   0  0  0  0  0  0  0  0  0  0  0  0
   -2.4558    1.4051    0.0000 R   0  0  0  0  0  1  0  0  0  0  0  0
   -2.2531   -1.1851    0.0000 O   0  0  0  0  0  0  0  0  0  0  0  0
  1  2  1  0
  2  3  1  0
  3  4  1  0
  4  5  1  0
  5  6  2  0
  6  7  1  0
  7  8  1  0
  7  9  2  0
  6  2  1  0
M  ISO  2   1   1   8   2
M  END
>  <symbol>  (1072) 
DhPro23

>  <m_abbr>  (1072) 
DhPro23

>  <m_name>  (1072) 
2,3-dehydroproline (Î”2,3-Pro)

>  <m_type>  (1072) 
aa

>  <m_subtype>  (1072) 
modified

>  <m_Rgroups>  (1072) 
[H],[OH]

>  <m_chem_types>  (1072) 
1:backbone_n,2:backbone_c

>  <m_activation_policy>  (1072) 
canonical-sites-v1

$$$$

     RDKit          2D

  9  8  0  0  0  0  0  0  0  0999 V2000
   -2.2500    1.5877    0.0000 R   0  0  0  0  0  1  0  0  0  0  0  0
   -0.7500    1.5877    0.0000 O   0  0  0  0  0  0  0  0  0  0  0  0
    0.0000    0.2887    0.0000 C   0  0  0  0  0  0  0  0  0  0  0  0
   -0.7500   -1.0104    0.0000 C   0  0  0  0  0  0  0  0  0  0  0  0
    0.0000   -2.3094    0.0000 R   0  0  0  0  0  1  0  0  0  0  0  0
   -2.2500   -1.0104    0.0000 O   0  0  0  0  0  0  0  0  0  0  0  0
    1.5000    0.2887    0.0000 C   0  0  0  0  0  0  0  0  0  0  0  0
    2.2500   -1.0104    0.0000 C   0  0  0  0  0  0  0  0  0  0  0  0
    2.2500    1.5877    0.0000 C   0  0  0  0  0  0  0  0  0  0  0  0
  1  2  1  0
  3  2  1  1
  3  4  1  0
  4  5  1  0
  4  6  2  0
  3  7  1  0
  7  8  1  0
  7  9  1  0
M  ISO  2   1   1   5   2
M  END
>  <symbol>  (1073) 
Hiv

>  <m_abbr>  (1073) 
Hiv

>  <m_name>  (1073) 
L-alpha-hydroxyisovaleric acid

>  <m_type>  (1073) 
aa

>  <m_subtype>  (1073) 
depsi

>  <m_Rgroups>  (1073) 
[H],[OH]

>  <m_chem_types>  (1073) 
1:backbone_o,2:backbone_c

>  <m_activation_policy>  (1073) 
canonical-sites-v1

$$$$

     RDKit          2D

  9  8  0  0  0  0  0  0  0  0999 V2000
   -2.2500    1.5877    0.0000 R   0  0  0  0  0  1  0  0  0  0  0  0
   -0.7500    1.5877    0.0000 O   0  0  0  0  0  0  0  0  0  0  0  0
    0.0000    0.2887    0.0000 C   0  0  0  0  0  0  0  0  0  0  0  0
   -0.7500   -1.0104    0.0000 C   0  0  0  0  0  0  0  0  0  0  0  0
    0.0000   -2.3094    0.0000 R   0  0  0  0  0  1  0  0  0  0  0  0
   -2.2500   -1.0104    0.0000 O   0  0  0  0  0  0  0  0  0  0  0  0
    1.5000    0.2887    0.0000 C   0  0  0  0  0  0  0  0  0  0  0  0
    2.2500   -1.0104    0.0000 C   0  0  0  0  0  0  0  0  0  0  0  0
    2.2500    1.5877    0.0000 C   0  0  0  0  0  0  0  0  0  0  0  0
  1  2  1  0
  3  2  1  6
  3  4  1  0
  4  5  1  0
  4  6  2  0
  3  7  1  0
  7  8  1  0
  7  9  1  0
M  ISO  2   1   1   5   2
M  END
>  <symbol>  (1074) 
D_Hiv

>  <m_abbr>  (1074) 
D_Hiv

>  <m_name>  (1074) 
D-alpha-hydroxyisovaleric acid

>  <m_type>  (1074) 
aa

>  <m_subtype>  (1074) 
depsi

>  <m_Rgroups>  (1074) 
[H],[OH]

>  <m_chem_types>  (1074) 
1:backbone_o,2:backbone_c

>  <m_activation_policy>  (1074) 
canonical-sites-v1

$$$$

     RDKit          2D

 13 13  0  0  0  0  0  0  0  0999 V2000
   -2.3388    2.3311    0.0000 R   0  0  0  0  0  1  0  0  0  0  0  0
   -1.1846    1.3730    0.0000 O   0  0  0  0  0  0  0  0  0  0  0  0
   -1.4373   -0.1056    0.0000 C   0  0  0  0  0  0  0  0  0  0  0  0
   -0.2831   -1.0637    0.0000 C   0  0  0  0  0  0  0  0  0  0  0  0
    1.1237   -0.5432    0.0000 C   0  0  0  0  0  0  0  0  0  0  0  0
    1.3763    0.9354    0.0000 C   0  0  0  0  0  0  0  0  0  0  0  0
    2.7831    1.4559    0.0000 C   0  0  0  0  0  0  0  0  0  0  0  0
    3.9373    0.4978    0.0000 C   0  0  0  0  0  0  0  0  0  0  0  0
    3.6846   -0.9808    0.0000 C   0  0  0  0  0  0  0  0  0  0  0  0
    2.2778   -1.5013    0.0000 C   0  0  0  0  0  0  0  0  0  0  0  0
   -2.8441   -0.6260    0.0000 C   0  0  0  0  0  0  0  0  0  0  0  0
   -3.9982    0.3321    0.0000 R   0  0  0  0  0  1  0  0  0  0  0  0
   -3.0967   -2.1046    0.0000 O   0  0  0  0  0  0  0  0  0  0  0  0
  1  2  1  0
  2  3  1  0
  3  4  1  1
  4  5  1  0
  5  6  2  0
  6  7  1  0
  7  8  2  0
  8  9  1  0
  9 10  2  0
  3 11  1  0
 11 12  1  0
 11 13  2  0
 10  5  1  0
M  ISO  2   1   1  12   2
M  END
>  <symbol>  (1075) 
PhLac

>  <m_abbr>  (1075) 
PhLac

>  <m_name>  (1075) 
L-3-phenyllactic acid

>  <m_type>  (1075) 
aa

>  <m_subtype>  (1075) 
depsi

>  <m_Rgroups>  (1075) 
[H],[OH]

>  <m_chem_types>  (1075) 
1:backbone_o,2:backbone_c

>  <m_activation_policy>  (1075) 
canonical-sites-v1

$$$$

     RDKit          2D

 13 13  0  0  0  0  0  0  0  0999 V2000
   -2.3388    2.3311    0.0000 R   0  0  0  0  0  1  0  0  0  0  0  0
   -1.1846    1.3730    0.0000 O   0  0  0  0  0  0  0  0  0  0  0  0
   -1.4373   -0.1056    0.0000 C   0  0  0  0  0  0  0  0  0  0  0  0
   -0.2831   -1.0637    0.0000 C   0  0  0  0  0  0  0  0  0  0  0  0
    1.1237   -0.5432    0.0000 C   0  0  0  0  0  0  0  0  0  0  0  0
    1.3763    0.9354    0.0000 C   0  0  0  0  0  0  0  0  0  0  0  0
    2.7831    1.4559    0.0000 C   0  0  0  0  0  0  0  0  0  0  0  0
    3.9373    0.4978    0.0000 C   0  0  0  0  0  0  0  0  0  0  0  0
    3.6846   -0.9808    0.0000 C   0  0  0  0  0  0  0  0  0  0  0  0
    2.2778   -1.5013    0.0000 C   0  0  0  0  0  0  0  0  0  0  0  0
   -2.8441   -0.6260    0.0000 C   0  0  0  0  0  0  0  0  0  0  0  0
   -3.9982    0.3321    0.0000 R   0  0  0  0  0  1  0  0  0  0  0  0
   -3.0967   -2.1046    0.0000 O   0  0  0  0  0  0  0  0  0  0  0  0
  1  2  1  0
  2  3  1  0
  3  4  1  6
  4  5  1  0
  5  6  2  0
  6  7  1  0
  7  8  2  0
  8  9  1  0
  9 10  2  0
  3 11  1  0
 11 12  1  0
 11 13  2  0
 10  5  1  0
M  ISO  2   1   1  12   2
M  END
>  <symbol>  (1076) 
D_PhLac

>  <m_abbr>  (1076) 
D_PhLac

>  <m_name>  (1076) 
D-3-phenyllactic acid

>  <m_type>  (1076) 
aa

>  <m_subtype>  (1076) 
depsi

>  <m_Rgroups>  (1076) 
[H],[OH]

>  <m_chem_types>  (1076) 
1:backbone_o,2:backbone_c

>  <m_activation_policy>  (1076) 
canonical-sites-v1

$$$$

     RDKit          2D

 10  9  0  0  0  0  0  0  0  0999 V2000
   -1.5052    2.4340    0.0000 R   0  0  0  0  0  1  0  0  0  0  0  0
   -1.5385    0.9344    0.0000 N   0  0  0  0  0  0  0  0  0  0  0  0
   -2.8539    0.2134    0.0000 C   0  0  0  0  0  0  0  0  0  0  0  0
   -0.2564    0.1557    0.0000 C   0  0  0  0  0  0  0  0  0  0  0  0
    1.0589    0.8767    0.0000 S   0  0  0  0  0  0  0  0  0  0  0  0
    2.3410    0.0981    0.0000 S   0  0  0  0  0  0  0  0  0  0  0  0
    3.6564    0.8191    0.0000 R   0  0  0  0  0  1  0  0  0  0  0  0
   -0.2897   -1.3439    0.0000 C   0  0  0  0  0  0  0  0  0  0  0  0
    0.9924   -2.1225    0.0000 R   0  0  0  0  0  1  0  0  0  0  0  0
   -1.6051   -2.0649    0.0000 O   0  0  0  0  0  0  0  0  0  0  0  0
  1  2  1  0
  2  3  1  0
  2  4  1  0
  4  5  1  1
  5  6  1  0
  6  7  1  0
  4  8  1  0
  8  9  1  0
  8 10  2  0
M  ISO  3   1   1   7   4   9   2
M  END
>  <symbol>  (1077) 
meAtgSS

>  <m_abbr>  (1077) 
meAtgSS

>  <m_name>  (1077) 
N-methyl-L-alpha-thio-Gly (disulfide-extended)

>  <m_type>  (1077) 
aa

>  <m_subtype>  (1077) 
modified

>  <m_Rgroups>  (1077) 
[H],[OH],None,[H]

>  <m_chem_types>  (1077) 
1:backbone_n,2:backbone_c,4:thiol

>  <m_activation_policy>  (1077) 
canonical-sites-v1

$$$$

     RDKit          2D

 10  9  0  0  0  0  0  0  0  0999 V2000
   -1.5052    2.4340    0.0000 R   0  0  0  0  0  1  0  0  0  0  0  0
   -1.5385    0.9344    0.0000 N   0  0  0  0  0  0  0  0  0  0  0  0
   -2.8539    0.2134    0.0000 C   0  0  0  0  0  0  0  0  0  0  0  0
   -0.2564    0.1557    0.0000 C   0  0  0  0  0  0  0  0  0  0  0  0
    1.0589    0.8767    0.0000 S   0  0  0  0  0  0  0  0  0  0  0  0
    2.3410    0.0981    0.0000 S   0  0  0  0  0  0  0  0  0  0  0  0
    3.6564    0.8191    0.0000 R   0  0  0  0  0  1  0  0  0  0  0  0
   -0.2897   -1.3439    0.0000 C   0  0  0  0  0  0  0  0  0  0  0  0
    0.9924   -2.1225    0.0000 R   0  0  0  0  0  1  0  0  0  0  0  0
   -1.6051   -2.0649    0.0000 O   0  0  0  0  0  0  0  0  0  0  0  0
  1  2  1  0
  2  3  1  0
  2  4  1  0
  4  5  1  6
  5  6  1  0
  6  7  1  0
  4  8  1  0
  8  9  1  0
  8 10  2  0
M  ISO  3   1   1   7   4   9   2
M  END
>  <symbol>  (1078) 
D_meAtgSS

>  <m_abbr>  (1078) 
D_meAtgSS

>  <m_name>  (1078) 
N-methyl-D-alpha-thio-Gly (disulfide-extended)

>  <m_type>  (1078) 
aa

>  <m_subtype>  (1078) 
modified

>  <m_Rgroups>  (1078) 
[H],[OH],None,[H]

>  <m_chem_types>  (1078) 
1:backbone_n,2:backbone_c,4:thiol

>  <m_activation_policy>  (1078) 
canonical-sites-v1

$$$$

     RDKit          2D

 10  9  0  0  0  0  0  0  0  0999 V2000
   -1.2990   -2.2500    0.0000 R   0  0  0  0  0  1  0  0  0  0  0  0
    0.0000   -1.5000    0.0000 N   0  0  0  0  0  0  0  0  0  0  0  0
    1.2990   -2.2500    0.0000 R   0  0  0  0  0  1  0  0  0  0  0  0
    0.0000    0.0000    0.0000 C   0  0  0  0  0  0  0  0  0  0  0  0
    1.2990    0.7500    0.0000 C   0  0  0  0  0  0  0  0  0  0  0  0
    2.5981    0.0000    0.0000 C   0  0  0  0  0  0  0  0  0  0  0  0
    1.2990    2.2500    0.0000 C   0  0  0  0  0  0  0  0  0  0  0  0
   -1.2990    0.7500    0.0000 C   0  0  0  0  0  0  0  0  0  0  0  0
   -1.2990    2.2500    0.0000 R   0  0  0  0  0  1  0  0  0  0  0  0
   -2.5981   -0.0000    0.0000 O   0  0  0  0  0  0  0  0  0  0  0  0
  1  2  1  0
  2  3  1  0
  4  2  1  6
  4  5  1  0
  5  6  2  0
  5  7  1  0
  4  8  1  0
  8  9  1  0
  8 10  2  0
M  ISO  3   1   1   3   3   9   2
M  END
>  <symbol>  (1079) 
VinylAla

>  <m_abbr>  (1079) 
VinylAla

>  <m_name>  (1079) 
alpha-isopropenyl-glycine

>  <m_type>  (1079) 
aa

>  <m_subtype>  (1079) 
modified

>  <m_Rgroups>  (1079) 
[H],[OH],[H]

>  <m_chem_types>  (1079) 
1:backbone_n,2:backbone_c,3:backbone_n_mod

>  <m_activation_policy>  (1079) 
canonical-sites-v1

$$$$

     RDKit          2D

 20 20  0  0  0  0  0  0  0  0999 V2000
   -3.3659    2.6355    0.0000 R   0  0  0  0  0  1  0  0  0  0  0  0
   -2.1849    1.7108    0.0000 N   0  0  0  0  0  0  0  0  0  0  0  0
   -0.7935    2.2712    0.0000 C   0  0  0  0  0  0  0  0  0  0  0  0
   -2.3953    0.2256    0.0000 C   0  0  0  0  0  0  0  0  0  0  0  0
   -3.7866   -0.3348    0.0000 C   0  0  0  0  0  0  0  0  0  0  0  0
   -4.9677    0.5899    0.0000 R   0  0  0  0  0  1  0  0  0  0  0  0
   -3.9970   -1.8200    0.0000 O   0  0  0  0  0  0  0  0  0  0  0  0
   -1.2142   -0.6991    0.0000 C   0  0  0  0  0  0  0  0  0  0  0  0
   -1.4246   -2.1843    0.0000 O   0  0  0  0  0  0  0  0  0  0  0  0
   -2.8159   -2.7448    0.0000 R   0  0  0  0  0  1  0  0  0  0  0  0
    0.1772   -0.1387    0.0000 C   0  0  0  0  0  0  0  0  0  0  0  0
    0.3875    1.3465    0.0000 C   0  0  0  0  0  0  0  0  0  0  0  0
    1.7789    1.9069    0.0000 C   0  0  0  0  0  0  0  0  0  0  0  0
    2.9599    0.9822    0.0000 C   0  0  0  0  0  0  0  0  0  0  0  0
    4.3513    1.5426    0.0000 O   0  0  0  0  0  0  0  0  0  0  0  0
    5.5323    0.6178    0.0000 R   0  0  0  0  0  1  0  0  0  0  0  0
    2.7496   -0.5030    0.0000 C   0  0  0  0  0  0  0  0  0  0  0  0
    3.9306   -1.4278    0.0000 O   0  0  0  0  0  0  0  0  0  0  0  0
    3.7203   -2.9130    0.0000 R   0  0  0  0  0  1  0  0  0  0  0  0
    1.3582   -1.0635    0.0000 C   0  0  0  0  0  0  0  0  0  0  0  0
  1  2  1  0
  2  3  1  0
  4  2  1  1
  4  5  1  0
  5  6  1  0
  5  7  2  0
  4  8  1  0
  8  9  1  6
  9 10  1  0
  8 11  1  0
 11 12  1  0
 12 13  2  0
 13 14  1  0
 14 15  1  0
 15 16  1  0
 14 17  2  0
 17 18  1  0
 18 19  1  0
 17 20  1  0
 20 11  2  0
M  ISO  5   1   1   6   2  10   4  16   5  19   6
M  END
>  <symbol>  (1080) 
MeBHTyr

>  <m_abbr>  (1080) 
MeBHTyr

>  <m_name>  (1080) 
N-methyl-beta-hydroxy-tyrosine (aryl-O crosslink)

>  <m_type>  (1080) 
aa

>  <m_subtype>  (1080) 
modified

>  <m_Rgroups>  (1080) 
[H],[OH],None,[H],[H],[H]

>  <m_chem_types>  (1080) 
1:backbone_n,2:backbone_c,4:hydroxyl,5:aryl_phenol_o,6:aryl_phenol_o

>  <m_activation_policy>  (1080) 
canonical-sites-v1

$$$$

     RDKit          2D

 12 11  0  0  0  0  0  0  0  0999 V2000
   -2.2116   -1.9364    0.0000 R   0  0  0  0  0  1  0  0  0  0  0  0
   -0.7795   -1.4901    0.0000 N   0  0  0  0  0  0  0  0  0  0  0  0
    0.3230   -2.5072    0.0000 R   0  0  0  0  0  1  0  0  0  0  0  0
   -0.4499   -0.0268    0.0000 C   0  0  0  0  0  0  0  0  0  0  0  0
   -1.5524    0.9903    0.0000 C   0  0  0  0  0  0  0  0  0  0  0  0
   -1.2228    2.4536    0.0000 R   0  0  0  0  0  1  0  0  0  0  0  0
   -2.9845    0.5441    0.0000 O   0  0  0  0  0  0  0  0  0  0  0  0
    0.9822    0.4194    0.0000 C   0  0  0  0  0  0  0  0  0  0  0  0
    0.5360    1.8515    0.0000 R   0  0  0  0  0  1  0  0  0  0  0  0
    1.4284   -1.0126    0.0000 C   0  0  0  0  0  0  0  0  0  0  0  0
    2.4143    0.8657    0.0000 C   0  0  0  0  0  0  0  0  0  0  0  0
    3.5168   -0.1514    0.0000 C   0  0  0  0  0  0  0  0  0  0  0  0
  1  2  1  0
  2  3  1  0
  4  2  1  6
  4  5  1  0
  5  6  1  0
  5  7  2  0
  4  8  1  0
  8  9  1  1
  8 10  1  0
  8 11  1  0
 11 12  1  0
M  ISO  4   1   1   3   3   6   2   9   4
M  END
>  <symbol>  (1081) 
XlQuat

>  <m_abbr>  (1081) 
XlQuat

>  <m_name>  (1081) 
alpha-(quaternary-C-Me-Et)-glycine â€” aryl-ether crosslink anchor

>  <m_type>  (1081) 
aa

>  <m_subtype>  (1081) 
modified

>  <m_Rgroups>  (1081) 
[H],[OH],[H],[H]

>  <m_chem_types>  (1081) 
1:backbone_n,2:backbone_c,3:backbone_n_mod,4:quat_c_anchor

>  <m_activation_policy>  (1081) 
canonical-sites-v1

$$$$

     RDKit          2D

  6  5  0  0  0  0  0  0  0  0999 V2000
   -2.2689    0.9563    0.0000 R   0  0  0  0  0  1  0  0  0  0  0  0
   -1.0893    0.0297    0.0000 N   0  0  0  0  0  0  0  0  0  0  0  0
   -1.3020   -1.4551    0.0000 R   0  0  0  0  0  1  0  0  0  0  0  0
    0.3029    0.5880    0.0000 C   0  0  0  0  0  0  0  0  0  0  0  0
    1.4825   -0.3386    0.0000 C   0  0  0  0  0  0  0  0  0  0  0  0
    2.8748    0.2197    0.0000 R   0  0  0  0  0  1  0  0  0  0  0  0
  1  2  1  0
  2  3  1  0
  2  4  1  0
  4  5  1  0
  5  6  1  0
M  ISO  3   1   1   3   3   6   2
M  END
>  <symbol>  (1082) 
redG2

>  <m_abbr>  (1082) 
redG2

>  <m_name>  (1082) 
ethano-diamine reduced-amide repeat (-N-CH2-CH2-)

>  <m_type>  (1082) 
aa

>  <m_subtype>  (1082) 
modified

>  <m_Rgroups>  (1082) 
[H],[H],[H]

>  <m_chem_types>  (1082) 
1:backbone_n,2:backbone_c_red,3:backbone_n_mod

>  <m_activation_policy>  (1082) 
canonical-sites-v1

$$$$

     RDKit          2D

  7  6  0  0  0  0  0  0  0  0999 V2000
   -2.9274    0.8124    0.0000 R   0  0  0  0  0  1  0  0  0  0  0  0
   -1.6736   -0.0110    0.0000 N   0  0  0  0  0  0  0  0  0  0  0  0
   -1.7598   -1.5085    0.0000 R   0  0  0  0  0  1  0  0  0  0  0  0
   -0.3336    0.6631    0.0000 C   0  0  0  0  0  0  0  0  0  0  0  0
    0.9202   -0.1603    0.0000 C   0  0  0  0  0  0  0  0  0  0  0  0
    2.2602    0.5139    0.0000 C   0  0  0  0  0  0  0  0  0  0  0  0
    3.5140   -0.3095    0.0000 R   0  0  0  0  0  1  0  0  0  0  0  0
  1  2  1  0
  2  3  1  0
  2  4  1  0
  4  5  1  0
  5  6  1  0
  6  7  1  0
M  ISO  3   1   1   3   3   7   2
M  END
>  <symbol>  (1083) 
redG3

>  <m_abbr>  (1083) 
redG3

>  <m_name>  (1083) 
propano-diamine reduced-amide repeat (-N-CH2-CH2-CH2-)

>  <m_type>  (1083) 
aa

>  <m_subtype>  (1083) 
modified

>  <m_Rgroups>  (1083) 
[H],[H],[H]

>  <m_chem_types>  (1083) 
1:backbone_n,2:backbone_c_red,3:backbone_n_mod

>  <m_activation_policy>  (1083) 
canonical-sites-v1

$$$$

     RDKit          2D

 10 10  0  0  0  0  0  0  0  0999 V2000
   -3.9403    0.4737    0.0000 R   0  0  0  0  0  1  0  0  0  0  0  0
   -2.9317   -0.6366    0.0000 C   0  0  0  0  0  0  0  0  0  0  0  0
   -1.4658   -0.3183    0.0000 C   0  0  0  0  0  0  0  0  0  0  0  0
   -1.0086    1.1103    0.0000 C   0  0  0  0  0  0  0  0  0  0  0  0
    0.4573    1.4286    0.0000 C   0  0  0  0  0  0  0  0  0  0  0  0
    1.4658    0.3183    0.0000 C   0  0  0  0  0  0  0  0  0  0  0  0
    2.9317    0.6366    0.0000 C   0  0  0  0  0  0  0  0  0  0  0  0
    3.9403   -0.4737    0.0000 R   0  0  0  0  0  1  0  0  0  0  0  0
    1.0086   -1.1103    0.0000 C   0  0  0  0  0  0  0  0  0  0  0  0
   -0.4573   -1.4286    0.0000 C   0  0  0  0  0  0  0  0  0  0  0  0
  1  2  1  0
  2  3  1  0
  3  4  1  0
  4  5  2  0
  5  6  1  0
  6  7  1  0
  7  8  1  0
  6  9  2  0
  9 10  1  0
 10  3  2  0
M  ISO  2   1   1   8   2
M  END
>  <symbol>  (1084) 
pXyl

>  <m_abbr>  (1084) 
pXyl

>  <m_name>  (1084) 
para-xylene (bis-CH2) reduced-amide linker

>  <m_type>  (1084) 
aa

>  <m_subtype>  (1084) 
modified

>  <m_Rgroups>  (1084) 
[H],[H]

>  <m_chem_types>  (1084) 
1:backbone_c_red,2:backbone_c_red

>  <m_activation_policy>  (1084) 
canonical-sites-v1

$$$$

     RDKit          2D

 11 10  0  0  0  0  0  0  0  0999 V2000
   -2.9120   -0.4910    0.0000 R   0  0  0  0  0  1  0  0  0  0  0  0
   -1.4947   -0.9820    0.0000 N   0  0  0  0  0  0  0  0  0  0  0  0
   -1.2112   -2.4550    0.0000 R   0  0  0  0  0  1  0  0  0  0  0  0
   -0.3608    0.0000    0.0000 C   0  0  0  0  0  0  0  0  0  0  0  0
   -0.6443    1.4730    0.0000 C   0  0  0  0  0  0  0  0  0  0  0  0
   -2.0616    1.9640    0.0000 R   0  0  0  0  0  1  0  0  0  0  0  0
    0.4896    2.4550    0.0000 O   0  0  0  0  0  0  0  0  0  0  0  0
    1.0566   -0.4910    0.0000 C   0  0  0  0  0  0  0  0  0  0  0  0
    1.3401   -1.9640    0.0000 C   0  0  0  0  0  0  0  0  0  0  0  0
    2.1905    0.4910    0.0000 C   0  0  0  0  0  0  0  0  0  0  0  0
    3.6078   -0.0000    0.0000 C   0  0  0  0  0  0  0  0  0  0  0  0
  1  2  1  0
  2  3  1  0
  2  4  1  0
  4  5  1  0
  5  6  1  0
  5  7  2  0
  4  8  2  0
  8  9  1  0
  8 10  1  0
 10 11  1  0
M  ISO  3   1   1   3   3   6   2
M  END
>  <symbol>  (1085) 
EnamEt

>  <m_abbr>  (1085) 
EnamEt

>  <m_name>  (1085) 
alpha,beta-dehydro-(2-methylbut-1-en-1-yl)-glycine

>  <m_type>  (1085) 
aa

>  <m_subtype>  (1085) 
modified

>  <m_Rgroups>  (1085) 
[H],[OH],[H]

>  <m_chem_types>  (1085) 
1:backbone_n,2:backbone_c,3:backbone_n_mod

>  <m_activation_policy>  (1085) 
canonical-sites-v1

$$$$

     RDKit          2D

 11 10  0  0  0  0  0  0  0  0999 V2000
   -3.0813    0.0866    0.0000 R   0  0  0  0  0  1  0  0  0  0  0  0
   -1.8784   -0.8095    0.0000 N   0  0  0  0  0  0  0  0  0  0  0  0
   -2.0531   -2.2993    0.0000 R   0  0  0  0  0  1  0  0  0  0  0  0
   -0.5009   -0.2159    0.0000 C   0  0  0  0  0  0  0  0  0  0  0  0
    0.7020   -1.1120    0.0000 C   0  0  0  0  0  0  0  0  0  0  0  0
    2.0795   -0.5184    0.0000 C   0  0  0  0  0  0  0  0  0  0  0  0
    3.2824   -1.4145    0.0000 R   0  0  0  0  0  1  0  0  0  0  0  0
    2.2541    0.9714    0.0000 O   0  0  0  0  0  0  0  0  0  0  0  0
   -0.3263    1.2739    0.0000 C   0  0  0  0  0  0  0  0  0  0  0  0
   -1.5291    2.1701    0.0000 R   0  0  0  0  0  1  0  0  0  0  0  0
    1.0513    1.8676    0.0000 O   0  0  0  0  0  0  0  0  0  0  0  0
  1  2  1  0
  2  3  1  0
  2  4  1  0
  4  5  2  0
  5  6  1  0
  6  7  1  0
  6  8  2  0
  4  9  1  0
  9 10  1  0
  9 11  2  0
M  ISO  4   1   1   3   3   7   4  10   5
M  END
>  <symbol>  (1086) 
EnamDA

>  <m_abbr>  (1086) 
EnamDA

>  <m_name>  (1086) 
alpha,beta-dehydro-(2-carboxyethenyl)-glycine (terminal, free acid)

>  <m_type>  (1086) 
aa

>  <m_subtype>  (1086) 
modified

>  <m_Rgroups>  (1086) 
[H],None,[H],[OH],[OH]

>  <m_chem_types>  (1086) 
1:backbone_n,3:backbone_n_mod,4:carboxyl,5:carboxyl

>  <m_activation_policy>  (1086) 
canonical-sites-v1

$$$$

     RDKit          2D

 11 10  0  0  0  0  0  0  0  0999 V2000
   -3.0813    0.0866    0.0000 R   0  0  0  0  0  1  0  0  0  0  0  0
   -1.8784   -0.8095    0.0000 N   0  0  0  0  0  0  0  0  0  0  0  0
   -2.0531   -2.2993    0.0000 R   0  0  0  0  0  1  0  0  0  0  0  0
   -0.5009   -0.2159    0.0000 C   0  0  0  0  0  0  0  0  0  0  0  0
    0.7020   -1.1120    0.0000 C   0  0  0  0  0  0  0  0  0  0  0  0
    2.0795   -0.5184    0.0000 C   0  0  0  0  0  0  0  0  0  0  0  0
    3.2824   -1.4145    0.0000 R   0  0  0  0  0  1  0  0  0  0  0  0
    2.2541    0.9714    0.0000 O   0  0  0  0  0  0  0  0  0  0  0  0
   -0.3263    1.2739    0.0000 C   0  0  0  0  0  0  0  0  0  0  0  0
   -1.5291    2.1701    0.0000 R   0  0  0  0  0  1  0  0  0  0  0  0
    1.0513    1.8676    0.0000 O   0  0  0  0  0  0  0  0  0  0  0  0
  1  2  1  0
  2  3  1  0
  2  4  1  0
  4  5  2  0
  5  6  1  0
  6  7  1  0
  6  8  2  0
  4  9  1  0
  9 10  1  0
  9 11  2  0
M  ISO  4   1   1   3   3   7   4  10   5
M  END
>  <symbol>  (1087) 
_EnamDA

>  <m_abbr>  (1087) 
_EnamDA

>  <m_name>  (1087) 
alpha,beta-dehydro-bis-carboxyl C-terminal cap (chondramide pendant)

>  <m_type>  (1087) 
cap

>  <m_subtype>  (1087) 
cap

>  <m_Rgroups>  (1087) 
[H],None,[H],[OH],[OH]

>  <m_chem_types>  (1087) 
1:backbone_n,3:backbone_n_mod,4:carboxyl,5:carboxyl

>  <m_activation_policy>  (1087) 
canonical-sites-v1

$$$$

     RDKit          2D

 29 31  0  0  0  0  0  0  0  0999 V2000
   -6.4592    0.7106    0.0000 R   0  0  0  0  0  1  0  0  0  0  0  0
   -5.0493    0.1984    0.0000 C   0  0  0  0  0  0  0  0  0  0  0  0
   -4.7880   -1.2787    0.0000 O   0  0  0  0  0  0  0  0  0  0  0  0
   -3.9008    1.1632    0.0000 C   0  0  0  0  0  0  0  0  0  0  0  0
   -4.1622    2.6403    0.0000 C   0  0  0  0  0  0  0  0  0  0  0  0
   -3.0137    3.6051    0.0000 C   0  0  0  0  0  0  0  0  0  0  0  0
   -1.6038    3.0929    0.0000 C   0  0  0  0  0  0  0  0  0  0  0  0
   -1.3425    1.6159    0.0000 C   0  0  0  0  0  0  0  0  0  0  0  0
    0.0674    1.1037    0.0000 P   0  0  0  0  0  0  0  0  0  0  0  0
    0.5796    2.5135    0.0000 O   0  0  0  0  0  0  0  0  0  0  0  0
    1.4772    0.5915    0.0000 C   0  0  0  0  0  0  0  0  0  0  0  0
    1.7385   -0.8856    0.0000 C   0  0  0  0  0  0  0  0  0  0  0  0
    3.1484   -1.3978    0.0000 C   0  0  0  0  0  0  0  0  0  0  0  0
    4.2969   -0.4329    0.0000 C   0  0  0  0  0  0  0  0  0  0  0  0
    4.0355    1.0441    0.0000 C   0  0  0  0  0  0  0  0  0  0  0  0
    5.1840    2.0090    0.0000 C   0  0  0  0  0  0  0  0  0  0  0  0
    6.5939    1.4968    0.0000 R   0  0  0  0  0  1  0  0  0  0  0  0
    4.9227    3.4860    0.0000 O   0  0  0  0  0  0  0  0  0  0  0  0
    2.6257    1.5563    0.0000 C   0  0  0  0  0  0  0  0  0  0  0  0
   -0.4448   -0.3062    0.0000 C   0  0  0  0  0  0  0  0  0  0  0  0
   -1.9219   -0.5675    0.0000 C   0  0  0  0  0  0  0  0  0  0  0  0
   -2.4341   -1.9773    0.0000 C   0  0  0  0  0  0  0  0  0  0  0  0
   -1.4692   -3.1258    0.0000 C   0  0  0  0  0  0  0  0  0  0  0  0
    0.0078   -2.8645    0.0000 C   0  0  0  0  0  0  0  0  0  0  0  0
    0.9727   -4.0130    0.0000 C   0  0  0  0  0  0  0  0  0  0  0  0
    0.4605   -5.4228    0.0000 R   0  0  0  0  0  1  0  0  0  0  0  0
    2.4497   -3.7517    0.0000 O   0  0  0  0  0  0  0  0  0  0  0  0
    0.5200   -1.4547    0.0000 C   0  0  0  0  0  0  0  0  0  0  0  0
   -2.4910    0.6510    0.0000 C   0  0  0  0  0  0  0  0  0  0  0  0
  1  2  1  0
  2  3  2  0
  2  4  1  0
  4  5  1  0
  5  6  2  0
  6  7  1  0
  7  8  2  0
  8  9  1  0
  9 10  2  0
  9 11  1  0
 11 12  2  0
 12 13  1  0
 13 14  2  0
 14 15  1  0
 15 16  1  0
 16 17  1  0
 16 18  2  0
 15 19  2  0
  9 20  1  0
 20 21  2  0
 21 22  1  0
 22 23  2  0
 23 24  1  0
 24 25  1  0
 25 26  1  0
 25 27  2  0
 24 28  2  0
  8 29  1  0
 29  4  2  0
 19 11  1  0
 28 20  1  0
M  ISO  3   1   4  17   5  26   6
M  END
>  <symbol>  (1088) 
PhosOxScaffold

>  <m_abbr>  (1088) 
PhosOxScaffold

>  <m_name>  (1088) 
tris(2-carboxyphenyl)-phosphine oxide (3-arm scaffold)

>  <m_type>  (1088) 
linker

>  <m_subtype>  (1088) 
crosslink

>  <m_Rgroups>  (1088) 
None,None,None,[OH],[OH],[OH]

>  <m_chem_types>  (1088) 
4:aryl_amide_c,5:aryl_amide_c,6:aryl_amide_c

>  <m_activation_policy>  (1088) 
canonical-sites-v1

$$$$

     RDKit          2D

 13 13  0  0  0  0  0  0  0  0999 V2000
   -4.7581    0.1655    0.0000 R   0  0  0  0  0  1  0  0  0  0  0  0
   -3.2638    0.2965    0.0000 N   0  0  0  0  0  0  0  0  0  0  0  0
   -2.6301    1.6561    0.0000 R   0  0  0  0  0  1  0  0  0  0  0  0
   -2.4032   -0.9320    0.0000 C   0  0  0  0  0  0  0  0  0  0  0  0
   -0.9089   -0.8010    0.0000 C   0  0  0  0  0  0  0  0  0  0  0  0
    0.0754   -1.9329    0.0000 C   0  0  0  0  0  0  0  0  0  0  0  0
    1.4560   -1.3465    0.0000 N   0  0  0  0  0  0  0  0  0  0  0  0
    2.7419   -2.1188    0.0000 C   0  0  0  0  0  0  0  0  0  0  0  0
    1.3250    0.1478    0.0000 C   0  0  0  0  0  0  0  0  0  0  0  0
    2.4569    1.1321    0.0000 C   0  0  0  0  0  0  0  0  0  0  0  0
    3.8752    0.6440    0.0000 R   0  0  0  0  0  1  0  0  0  0  0  0
    2.1704    2.6044    0.0000 O   0  0  0  0  0  0  0  0  0  0  0  0
   -0.1366    0.4849    0.0000 N   0  0  0  0  0  0  0  0  0  0  0  0
  1  2  1  0
  2  3  1  0
  2  4  1  0
  4  5  1  0
  5  6  2  0
  6  7  1  0
  7  8  1  0
  7  9  1  0
  9 10  1  0
 10 11  1  0
 10 12  2  0
  9 13  2  0
 13  5  1  0
M  ISO  3   1   1   3   3  11   2
M  END
>  <symbol>  (1089) 
ImzAla

>  <m_abbr>  (1089) 
ImzAla

>  <m_name>  (1089) 
N-methyl-imidazol-4-yl-(Î²)-glycine (CP01557 unit)

>  <m_type>  (1089) 
aa

>  <m_subtype>  (1089) 
modified

>  <m_Rgroups>  (1089) 
[H],[OH],[H]

>  <m_chem_types>  (1089) 
1:backbone_n,2:backbone_c,3:backbone_n_mod

>  <m_activation_policy>  (1089) 
canonical-sites-v1

$$$$

     RDKit          2D

 16 16  0  0  0  0  0  0  0  0999 V2000
    4.2852    0.8125    0.0000 R   0  0  0  0  0  1  0  0  0  0  0  0
    2.8089    1.0780    0.0000 N   0  0  0  0  0  0  0  0  0  0  0  0
    2.3007    2.4892    0.0000 R   0  0  0  0  0  1  0  0  0  0  0  0
    1.8408   -0.0678    0.0000 C   0  0  0  0  0  0  0  0  0  0  0  0
    0.3645    0.1977    0.0000 C   0  0  0  0  0  0  0  0  0  0  0  0
   -0.2884    1.5481    0.0000 C   0  0  0  0  0  0  0  0  0  0  0  0
   -1.7745    1.3444    0.0000 N   0  0  0  0  0  0  0  0  0  0  0  0
   -2.8129    2.4269    0.0000 C   0  0  0  0  0  0  0  0  0  0  0  0
   -2.0400   -0.1319    0.0000 C   0  0  0  0  0  0  0  0  0  0  0  0
   -3.3905   -0.7849    0.0000 C   0  0  0  0  0  0  0  0  0  0  0  0
   -4.6312    0.0581    0.0000 R   0  0  0  0  0  1  0  0  0  0  0  0
   -3.5002   -2.2809    0.0000 O   0  0  0  0  0  0  0  0  0  0  0  0
   -0.7180   -0.8406    0.0000 N   0  0  0  0  0  0  0  0  0  0  0  0
    2.3491   -1.4791    0.0000 C   0  0  0  0  0  0  0  0  0  0  0  0
    3.8254   -1.7446    0.0000 C   0  0  0  0  0  0  0  0  0  0  0  0
    1.3810   -2.6249    0.0000 C   0  0  0  0  0  0  0  0  0  0  0  0
  1  2  1  0
  2  3  1  0
  2  4  1  0
  4  5  1  0
  5  6  2  0
  6  7  1  0
  7  8  1  0
  7  9  1  0
  9 10  1  0
 10 11  1  0
 10 12  2  0
  9 13  2  0
  4 14  1  6
 14 15  1  0
 14 16  1  0
 13  5  1  0
M  ISO  3   1   1   3   3  11   2
M  END
>  <symbol>  (1090) 
ImzIprVal

>  <m_abbr>  (1090) 
ImzIprVal

>  <m_name>  (1090) 
alpha-iPr-(1-methylimidazol-2-yl)-glycine (CP01557 unit)

>  <m_type>  (1090) 
aa

>  <m_subtype>  (1090) 
modified

>  <m_Rgroups>  (1090) 
[H],[OH],[H]

>  <m_chem_types>  (1090) 
1:backbone_n,2:backbone_c,3:backbone_n_mod

>  <m_activation_policy>  (1090) 
canonical-sites-v1

$$$$

     RDKit          2D

  9  9  0  0  0  0  0  0  0  0999 V2000
    1.6317   -1.9374    0.0000 R   0  0  0  0  0  1  0  0  0  0  0  0
    0.7500   -0.7238    0.0000 C   0  0  0  0  0  0  0  0  0  0  0  0
    1.2135    0.7027    0.0000 C   0  0  0  0  0  0  0  0  0  0  0  0
    2.6401    1.1663    0.0000 R   0  0  0  0  0  1  0  0  0  0  0  0
    0.0000    1.5844    0.0000 N   0  0  0  0  0  0  0  0  0  0  0  0
   -1.2135    0.7027    0.0000 C   0  0  0  0  0  0  0  0  0  0  0  0
   -2.6401    1.1663    0.0000 R   0  0  0  0  0  1  0  0  0  0  0  0
   -0.7500   -0.7238    0.0000 N   0  0  0  0  0  0  0  0  0  0  0  0
   -1.6317   -1.9374    0.0000 C   0  0  0  0  0  0  0  0  0  0  0  0
  1  2  1  0
  2  3  2  0
  3  4  1  0
  3  5  1  0
  5  6  2  0
  6  7  1  0
  6  8  1  0
  8  9  1  0
  8  2  1  0
M  ISO  3   1   4   4   5   7   6
M  END
>  <symbol>  (1091) 
ImzScaffold

>  <m_abbr>  (1091) 
ImzScaffold

>  <m_name>  (1091) 
N-methyl-imidazole 3-arm scaffold (C2/C4/C5 anchors)

>  <m_type>  (1091) 
linker

>  <m_subtype>  (1091) 
crosslink

>  <m_Rgroups>  (1091) 
None,None,None,[H],[H],[H]

>  <m_chem_types>  (1091) 
4:aryl_c_anchor,5:aryl_c_anchor,6:aryl_c_anchor

>  <m_activation_policy>  (1091) 
canonical-sites-v1

$$$$

     RDKit          2D

  8  7  0  0  0  0  0  0  0  0999 V2000
   -1.2990    1.6875    0.0000 R   0  0  0  0  0  1  0  0  0  0  0  0
   -1.2990    0.1875    0.0000 N   0  0  0  0  0  0  0  0  0  0  0  0
   -2.5981   -0.5625    0.0000 R   0  0  0  0  0  1  0  0  0  0  0  0
    0.0000   -0.5625    0.0000 C   0  0  0  0  0  0  0  0  0  0  0  0
    0.0000   -2.0625    0.0000 R   0  0  0  0  0  1  0  0  0  0  0  0
    1.2990    0.1875    0.0000 C   0  0  0  0  0  0  0  0  0  0  0  0
    2.5981   -0.5625    0.0000 C   0  0  0  0  0  0  0  0  0  0  0  0
    1.2990    1.6875    0.0000 C   0  0  0  0  0  0  0  0  0  0  0  0
  1  2  1  0
  2  3  1  0
  2  4  1  0
  4  5  1  6
  4  6  1  0
  6  7  1  0
  6  8  1  0
M  ISO  3   1   1   3   3   5   2
M  END
>  <symbol>  (1092) 
ValAryl

>  <m_abbr>  (1092) 
ValAryl

>  <m_name>  (1092) 
alpha-iPr-glycine with sp3-C-to-aryl chain exit (CP01557 Val)

>  <m_type>  (1092) 
aa

>  <m_subtype>  (1092) 
modified

>  <m_Rgroups>  (1092) 
[H],[H],[H]

>  <m_chem_types>  (1092) 
1:backbone_n,2:sp3_c_anchor,3:backbone_n_mod

>  <m_activation_policy>  (1092) 
canonical-sites-v1

$$$$

     RDKit          2D

 11 11  0  0  0  0  0  0  0  0999 V2000
    0.5596   -1.9073    0.0000 R   0  0  0  0  0  1  0  0  0  0  0  0
    0.3908   -0.4168    0.0000 N   0  0  0  0  0  0  0  0  0  0  0  0
    1.4973    0.5958    0.0000 C   0  0  0  0  0  0  0  0  0  0  0  0
    2.9670    0.2958    0.0000 O   0  0  0  0  0  0  0  0  0  0  0  0
    3.4421   -1.1270    0.0000 R   0  0  0  0  0  1  0  0  0  0  0  0
    0.8762    1.9612    0.0000 C   0  0  0  0  0  0  0  0  0  0  0  0
   -0.6143    1.7923    0.0000 C   0  0  0  0  0  0  0  0  0  0  0  0
   -0.9143    0.3226    0.0000 C   0  0  0  0  0  0  0  0  0  0  0  0
   -2.2796   -0.2985    0.0000 C   0  0  0  0  0  0  0  0  0  0  0  0
   -3.5003    0.5733    0.0000 R   0  0  0  0  0  1  0  0  0  0  0  0
   -2.4244   -1.7915    0.0000 O   0  0  0  0  0  0  0  0  0  0  0  0
  1  2  1  0
  2  3  1  0
  3  4  1  0
  4  5  1  0
  3  6  1  0
  6  7  1  0
  7  8  1  0
  8  9  1  1
  9 10  1  0
  9 11  2  0
  8  2  1  0
M  ISO  3   1   1   5   4  10   2
M  END
>  <symbol>  (1093) 
OHPro_3

>  <m_abbr>  (1093) 
OHPro_3

>  <m_name>  (1093) 
3-Hydroxyproline

>  <m_type>  (1093) 
aa

>  <m_subtype>  (1093) 
modified

>  <m_Rgroups>  (1093) 
[H],[OH],None,[H]

>  <m_chem_types>  (1093) 
1:backbone_n,2:backbone_c,4:hydroxyl

>  <m_activation_policy>  (1093) 
canonical-sites-v1

$$$$

     RDKit          2D

 14 14  0  0  0  0  0  0  0  0999 V2000
   -0.9196   -2.7560    0.0000 R   0  0  0  0  0  1  0  0  0  0  0  0
   -0.2815   -1.3985    0.0000 N   0  0  0  0  0  0  0  0  0  0  0  0
    1.1918   -1.1168    0.0000 C   0  0  0  0  0  0  0  0  0  0  0  0
    2.2857   -2.1432    0.0000 R   0  0  0  0  0  1  0  0  0  0  0  0
    1.3792    0.3714    0.0000 C   0  0  0  0  0  0  0  0  0  0  0  0
    2.6933    1.0946    0.0000 O   0  0  0  0  0  0  0  0  0  0  0  0
    3.9767    0.3181    0.0000 R   0  0  0  0  0  1  0  0  0  0  0  0
    0.0217    1.0095    0.0000 C   0  0  0  0  0  0  0  0  0  0  0  0
   -1.1735    1.9159    0.0000 R   0  0  0  0  0  1  0  0  0  0  0  0
    0.7982    2.2929    0.0000 C   0  0  0  0  0  0  0  0  0  0  0  0
   -1.0047   -0.0843    0.0000 C   0  0  0  0  0  0  0  0  0  0  0  0
   -2.4930    0.1030    0.0000 C   0  0  0  0  0  0  0  0  0  0  0  0
   -3.3994   -1.0921    0.0000 R   0  0  0  0  0  1  0  0  0  0  0  0
   -3.0748    1.4856    0.0000 O   0  0  0  0  0  0  0  0  0  0  0  0
  1  2  1  0
  2  3  1  0
  3  4  1  0
  3  5  1  0
  5  6  1  1
  6  7  1  0
  5  8  1  0
  8  9  1  6
  8 10  1  0
  8 11  1  0
 11 12  1  6
 12 13  1  0
 12 14  2  0
 11  2  1  0
M  ISO  5   1   1   4   5   7   6   9   4  13   2
M  END
>  <symbol>  (1094) 
MeHyp_3

>  <m_abbr>  (1094) 
MeHyp_3

>  <m_name>  (1094) 
3-Methyl-4-hydroxyproline

>  <m_type>  (1094) 
aa

>  <m_subtype>  (1094) 
modified

>  <m_Rgroups>  (1094) 
[H],[OH],None,[H],[H],[H]

>  <m_chem_types>  (1094) 
1:backbone_n,2:backbone_c,4:quat_c_anchor,5:backbone_c_red,6:hydroxyl

>  <m_activation_policy>  (1094) 
canonical-sites-v1

$$$$

     RDKit          2D

 16 15  0  0  0  0  0  0  0  0999 V2000
   -3.8950   -0.7610    0.0000 R   0  0  0  0  0  1  0  0  0  0  0  0
   -2.4098   -0.9711    0.0000 N   0  0  0  0  0  0  0  0  0  0  0  0
   -1.8491   -2.3624    0.0000 R   0  0  0  0  0  1  0  0  0  0  0  0
   -1.4852    0.2101    0.0000 C   0  0  0  0  0  0  0  0  0  0  0  0
   -2.0459    1.6014    0.0000 C   0  0  0  0  0  0  0  0  0  0  0  0
   -1.1213    2.7826    0.0000 R   0  0  0  0  0  1  0  0  0  0  0  0
   -3.5311    1.8114    0.0000 O   0  0  0  0  0  0  0  0  0  0  0  0
    0.0000   -0.0000    0.0000 C   0  0  0  0  0  0  0  0  0  0  0  0
    0.9245    1.1812    0.0000 C   0  0  0  0  0  0  0  0  0  0  0  0
    2.4098    0.9711    0.0000 C   0  0  0  0  0  0  0  0  0  0  0  0
    3.3343    2.1523    0.0000 R   0  0  0  0  0  1  0  0  0  0  0  0
    2.9704   -0.4202    0.0000 N   0  0  0  0  0  0  0  0  0  0  0  0
    4.4556   -0.6302    0.0000 R   0  0  0  0  0  1  0  0  0  0  0  0
    2.0459   -1.6014    0.0000 R   0  0  0  0  0  1  0  0  0  0  0  0
    0.5607   -1.3913    0.0000 O   0  0  0  0  0  0  0  0  0  0  0  0
   -0.3639   -2.5725    0.0000 R   0  0  0  0  0  1  0  0  0  0  0  0
  1  2  1  0
  2  3  1  0
  4  2  1  1
  4  5  1  0
  5  6  1  0
  5  7  2  0
  4  8  1  0
  8  9  1  1
  9 10  1  0
 10 11  1  0
 10 12  1  0
 12 13  1  0
 12 14  1  0
  8 15  1  0
 15 16  1  0
M  ISO  7   1   1   3   3   6   2  11   6  13   4  14   5  16   7
M  END
>  <symbol>  (1095) 
bOH_Lys

>  <m_abbr>  (1095) 
bOH_Lys

>  <m_name>  (1095) 
beta-Hydroxylysine

>  <m_type>  (1095) 
aa

>  <m_subtype>  (1095) 
modified

>  <m_Rgroups>  (1095) 
[H],[OH],[H],[H],[H],[H],[H]

>  <m_chem_types>  (1095) 
1:backbone_n,2:backbone_c,3:backbone_n_mod,4:amine_primary,5:amine_primary,6:backbone_c_red,7:hydroxyl

>  <m_activation_policy>  (1095) 
canonical-sites-v1

$$$$

     RDKit          2D

 14 13  0  0  0  0  0  0  0  0999 V2000
   -3.3242   -0.8730    0.0000 R   0  0  0  0  0  1  0  0  0  0  0  0
   -1.8604   -1.2004    0.0000 N   0  0  0  0  0  0  0  0  0  0  0  0
   -1.4119   -2.6318    0.0000 R   0  0  0  0  0  1  0  0  0  0  0  0
   -0.8450   -0.0963    0.0000 C   0  0  0  0  0  0  0  0  0  0  0  0
   -1.2934    1.3351    0.0000 C   0  0  0  0  0  0  0  0  0  0  0  0
   -0.2780    2.4392    0.0000 R   0  0  0  0  0  1  0  0  0  0  0  0
   -2.7572    1.6624    0.0000 O   0  0  0  0  0  0  0  0  0  0  0  0
    0.6189   -0.4236    0.0000 C   0  0  0  0  0  0  0  0  0  0  0  0
    1.0673   -1.8550    0.0000 O   0  0  0  0  0  0  0  0  0  0  0  0
    2.5312   -2.1824    0.0000 R   0  0  0  0  0  1  0  0  0  0  0  0
    1.6343    0.6804    0.0000 C   0  0  0  0  0  0  0  0  0  0  0  0
    2.7384   -0.3350    0.0000 R   0  0  0  0  0  1  0  0  0  0  0  0
    0.5302    1.6958    0.0000 C   0  0  0  0  0  0  0  0  0  0  0  0
    2.6497    1.7845    0.0000 C   0  0  0  0  0  0  0  0  0  0  0  0
  1  2  1  0
  2  3  1  0
  4  2  1  1
  4  5  1  0
  5  6  1  0
  5  7  2  0
  4  8  1  0
  8  9  1  1
  9 10  1  0
  8 11  1  0
 11 12  1  0
 11 13  1  0
 11 14  1  0
M  ISO  5   1   1   3   3   6   2  10   5  12   4
M  END
>  <symbol>  (1096) 
bOH_Val

>  <m_abbr>  (1096) 
bOH_Val

>  <m_name>  (1096) 
beta-Hydroxyvaline

>  <m_type>  (1096) 
aa

>  <m_subtype>  (1096) 
modified

>  <m_Rgroups>  (1096) 
[H],[OH],[H],[H],[H]

>  <m_chem_types>  (1096) 
1:backbone_n,2:backbone_c,3:backbone_n_mod,4:quat_c_anchor,5:hydroxyl

>  <m_activation_policy>  (1096) 
canonical-sites-v1

$$$$

     RDKit          2D

 10  9  0  0  0  0  0  0  0  0999 V2000
   -3.1802    0.8418    0.0000 R   0  0  0  0  0  1  0  0  0  0  0  0
   -1.8138    1.4604    0.0000 O   0  0  0  0  0  0  0  0  0  0  0  0
   -0.5948    0.5863    0.0000 C   0  0  0  0  0  0  0  0  0  0  0  0
    0.7717    1.2050    0.0000 C   0  0  0  0  0  0  0  0  0  0  0  0
    1.9907    0.3309    0.0000 C   0  0  0  0  0  0  0  0  0  0  0  0
    3.3572    0.9495    0.0000 C   0  0  0  0  0  0  0  0  0  0  0  0
    1.8433   -1.1619    0.0000 C   0  0  0  0  0  0  0  0  0  0  0  0
   -0.7422   -0.9064    0.0000 C   0  0  0  0  0  0  0  0  0  0  0  0
    0.4768   -1.7805    0.0000 R   0  0  0  0  0  1  0  0  0  0  0  0
   -2.1087   -1.5251    0.0000 O   0  0  0  0  0  0  0  0  0  0  0  0
  1  2  1  0
  2  3  1  0
  3  4  1  6
  4  5  1  0
  5  6  1  0
  5  7  1  0
  3  8  1  0
  8  9  1  0
  8 10  2  0
M  ISO  2   1   1   9   2
M  END
>  <symbol>  (1097) 
Hic

>  <m_abbr>  (1097) 
Hic

>  <m_name>  (1097) 
L-2-hydroxy-4-methylpentanoic acid

>  <m_type>  (1097) 
aa

>  <m_subtype>  (1097) 
depsi

>  <m_Rgroups>  (1097) 
[H],[OH]

>  <m_chem_types>  (1097) 
1:backbone_o,2:backbone_c

>  <m_activation_policy>  (1097) 
canonical-sites-v1

$$$$

     RDKit          2D

 10  9  0  0  0  0  0  0  0  0999 V2000
   -3.1802    0.8418    0.0000 R   0  0  0  0  0  1  0  0  0  0  0  0
   -1.8138    1.4604    0.0000 O   0  0  0  0  0  0  0  0  0  0  0  0
   -0.5948    0.5863    0.0000 C   0  0  0  0  0  0  0  0  0  0  0  0
    0.7717    1.2050    0.0000 C   0  0  0  0  0  0  0  0  0  0  0  0
    1.9907    0.3309    0.0000 C   0  0  0  0  0  0  0  0  0  0  0  0
    3.3572    0.9495    0.0000 C   0  0  0  0  0  0  0  0  0  0  0  0
    1.8433   -1.1619    0.0000 C   0  0  0  0  0  0  0  0  0  0  0  0
   -0.7422   -0.9064    0.0000 C   0  0  0  0  0  0  0  0  0  0  0  0
    0.4768   -1.7805    0.0000 R   0  0  0  0  0  1  0  0  0  0  0  0
   -2.1087   -1.5251    0.0000 O   0  0  0  0  0  0  0  0  0  0  0  0
  1  2  1  0
  2  3  1  0
  3  4  1  1
  4  5  1  0
  5  6  1  0
  5  7  1  0
  3  8  1  0
  8  9  1  0
  8 10  2  0
M  ISO  2   1   1   9   2
M  END
>  <symbol>  (1098) 
D_Hic

>  <m_abbr>  (1098) 
D_Hic

>  <m_name>  (1098) 
D-2-hydroxy-4-methylpentanoic acid

>  <m_type>  (1098) 
aa

>  <m_subtype>  (1098) 
depsi

>  <m_Rgroups>  (1098) 
[H],[OH]

>  <m_chem_types>  (1098) 
1:backbone_o,2:backbone_c

>  <m_activation_policy>  (1098) 
canonical-sites-v1

$$$$

     RDKit          2D

 14 14  0  0  0  0  0  0  0  0999 V2000
   -4.0128    0.2211    0.0000 R   0  0  0  0  0  1  0  0  0  0  0  0
   -2.8645   -0.7439    0.0000 N   0  0  0  0  0  0  0  0  0  0  0  0
   -3.1261   -2.2209    0.0000 R   0  0  0  0  0  1  0  0  0  0  0  0
   -1.4546   -0.2320    0.0000 C   0  0  0  0  0  0  0  0  0  0  0  0
   -0.3063   -1.1971    0.0000 C   0  0  0  0  0  0  0  0  0  0  0  0
    1.1037   -0.6851    0.0000 C   0  0  0  0  0  0  0  0  0  0  0  0
    1.3653    0.7919    0.0000 C   0  0  0  0  0  0  0  0  0  0  0  0
    2.7752    1.3038    0.0000 C   0  0  0  0  0  0  0  0  0  0  0  0
    3.9235    0.3387    0.0000 C   0  0  0  0  0  0  0  0  0  0  0  0
    3.6619   -1.1383    0.0000 C   0  0  0  0  0  0  0  0  0  0  0  0
    2.2520   -1.6502    0.0000 C   0  0  0  0  0  0  0  0  0  0  0  0
   -1.1930    1.2450    0.0000 C   0  0  0  0  0  0  0  0  0  0  0  0
   -2.3413    2.2101    0.0000 R   0  0  0  0  0  1  0  0  0  0  0  0
    0.2170    1.7569    0.0000 O   0  0  0  0  0  0  0  0  0  0  0  0
  1  2  1  0
  2  3  1  0
  2  4  1  0
  4  5  2  0
  5  6  1  0
  6  7  2  0
  7  8  1  0
  8  9  2  0
  9 10  1  0
 10 11  2  0
  4 12  1  0
 12 13  1  0
 12 14  2  0
 11  6  1  0
M  ISO  3   1   1   3   3  13   2
M  END
>  <symbol>  (1099) 
DeltaPhe_E

>  <m_abbr>  (1099) 
DeltaPhe_E

>  <m_name>  (1099) 
(E)-alpha,beta-Didehydrophenylalanine

>  <m_type>  (1099) 
aa

>  <m_subtype>  (1099) 
modified

>  <m_Rgroups>  (1099) 
[H],[OH],[H]

>  <m_chem_types>  (1099) 
1:backbone_n,2:backbone_c,3:backbone_n_mod

>  <m_activation_policy>  (1099) 
canonical-sites-v1

$$$$

     RDKit          2D

 14 14  0  0  0  0  0  0  0  0999 V2000
    2.3413    2.2101    0.0000 R   0  0  0  0  0  1  0  0  0  0  0  0
    1.1930    1.2450    0.0000 N   0  0  0  0  0  0  0  0  0  0  0  0
   -0.2170    1.7569    0.0000 R   0  0  0  0  0  1  0  0  0  0  0  0
    1.4546   -0.2320    0.0000 C   0  0  0  0  0  0  0  0  0  0  0  0
    0.3063   -1.1971    0.0000 C   0  0  0  0  0  0  0  0  0  0  0  0
   -1.1037   -0.6851    0.0000 C   0  0  0  0  0  0  0  0  0  0  0  0
   -2.2520   -1.6502    0.0000 C   0  0  0  0  0  0  0  0  0  0  0  0
   -3.6619   -1.1383    0.0000 C   0  0  0  0  0  0  0  0  0  0  0  0
   -3.9235    0.3387    0.0000 C   0  0  0  0  0  0  0  0  0  0  0  0
   -2.7752    1.3038    0.0000 C   0  0  0  0  0  0  0  0  0  0  0  0
   -1.3653    0.7919    0.0000 C   0  0  0  0  0  0  0  0  0  0  0  0
    2.8645   -0.7439    0.0000 C   0  0  0  0  0  0  0  0  0  0  0  0
    4.0128    0.2211    0.0000 R   0  0  0  0  0  1  0  0  0  0  0  0
    3.1261   -2.2209    0.0000 O   0  0  0  0  0  0  0  0  0  0  0  0
  1  2  1  0
  2  3  1  0
  2  4  1  0
  4  5  2  0
  5  6  1  0
  6  7  2  0
  7  8  1  0
  8  9  2  0
  9 10  1  0
 10 11  2  0
  4 12  1  0
 12 13  1  0
 12 14  2  0
 11  6  1  0
M  ISO  3   1   1   3   3  13   2
M  END
>  <symbol>  (1100) 
DeltaPhe_Z

>  <m_abbr>  (1100) 
DeltaPhe_Z

>  <m_name>  (1100) 
(Z)-alpha,beta-Didehydrophenylalanine

>  <m_type>  (1100) 
aa

>  <m_subtype>  (1100) 
modified

>  <m_Rgroups>  (1100) 
[H],[OH],[H]

>  <m_chem_types>  (1100) 
1:backbone_n,2:backbone_c,3:backbone_n_mod

>  <m_activation_policy>  (1100) 
canonical-sites-v1

$$$$

     RDKit          2D

 16 16  0  0  0  0  0  0  0  0999 V2000
   -4.7452    0.2981    0.0000 R   0  0  0  0  0  1  0  0  0  0  0  0
   -3.6222   -0.6964    0.0000 N   0  0  0  0  0  0  0  0  0  0  0  0
   -3.9220   -2.1661    0.0000 R   0  0  0  0  0  1  0  0  0  0  0  0
   -2.1995   -0.2211    0.0000 C   0  0  0  0  0  0  0  0  0  0  0  0
   -1.0766   -1.2156    0.0000 C   0  0  0  0  0  0  0  0  0  0  0  0
    0.3462   -0.7404    0.0000 C   0  0  0  0  0  0  0  0  0  0  0  0
    0.6459    0.7294    0.0000 C   0  0  0  0  0  0  0  0  0  0  0  0
    2.0687    1.2046    0.0000 C   0  0  0  0  0  0  0  0  0  0  0  0
    3.1916    0.2101    0.0000 C   0  0  0  0  0  0  0  0  0  0  0  0
    4.6143    0.6854    0.0000 O   0  0  0  0  0  0  0  0  0  0  0  0
    5.7373   -0.3091    0.0000 C   0  0  0  0  0  0  0  0  0  0  0  0
    2.8918   -1.2596    0.0000 C   0  0  0  0  0  0  0  0  0  0  0  0
    1.4691   -1.7348    0.0000 C   0  0  0  0  0  0  0  0  0  0  0  0
   -1.8997    1.2486    0.0000 C   0  0  0  0  0  0  0  0  0  0  0  0
   -3.0227    2.2431    0.0000 R   0  0  0  0  0  1  0  0  0  0  0  0
   -0.4770    1.7239    0.0000 O   0  0  0  0  0  0  0  0  0  0  0  0
  1  2  1  0
  2  3  1  0
  2  4  1  0
  4  5  2  0
  5  6  1  0
  6  7  1  0
  7  8  2  0
  8  9  1  0
  9 10  1  0
 10 11  1  0
  9 12  2  0
 12 13  1  0
  4 14  1  0
 14 15  1  0
 14 16  2  0
 13  6  2  0
M  ISO  3   1   1   3   3  15   2
M  END
>  <symbol>  (1101) 
Tyr_ab_dehydroMe_E

>  <m_abbr>  (1101) 
Tyr_ab_dehydroMe_E

>  <m_name>  (1101) 
(E)-2-amino-3-(4-methoxyphenyl)prop-2-enoic acid

>  <m_type>  (1101) 
aa

>  <m_subtype>  (1101) 
modified

>  <m_Rgroups>  (1101) 
[H],[OH],[H]

>  <m_chem_types>  (1101) 
1:backbone_n,2:backbone_c,3:backbone_n_mod

>  <m_activation_policy>  (1101) 
canonical-sites-v1

$$$$

     RDKit          2D

 16 16  0  0  0  0  0  0  0  0999 V2000
    2.7261    2.4002    0.0000 R   0  0  0  0  0  1  0  0  0  0  0  0
    1.7181    1.2894    0.0000 N   0  0  0  0  0  0  0  0  0  0  0  0
    0.2521    1.6068    0.0000 R   0  0  0  0  0  1  0  0  0  0  0  0
    2.1761   -0.1390    0.0000 C   0  0  0  0  0  0  0  0  0  0  0  0
    1.1682   -1.2499    0.0000 C   0  0  0  0  0  0  0  0  0  0  0  0
   -0.2978   -0.9324    0.0000 C   0  0  0  0  0  0  0  0  0  0  0  0
   -1.3058   -2.0432    0.0000 C   0  0  0  0  0  0  0  0  0  0  0  0
   -2.7718   -1.7257    0.0000 C   0  0  0  0  0  0  0  0  0  0  0  0
   -3.2299   -0.2974    0.0000 C   0  0  0  0  0  0  0  0  0  0  0  0
   -4.6959    0.0201    0.0000 O   0  0  0  0  0  0  0  0  0  0  0  0
   -5.1539    1.4485    0.0000 C   0  0  0  0  0  0  0  0  0  0  0  0
   -2.2219    0.8135    0.0000 C   0  0  0  0  0  0  0  0  0  0  0  0
   -0.7559    0.4960    0.0000 C   0  0  0  0  0  0  0  0  0  0  0  0
    3.6421   -0.4565    0.0000 C   0  0  0  0  0  0  0  0  0  0  0  0
    4.6501    0.6544    0.0000 R   0  0  0  0  0  1  0  0  0  0  0  0
    4.1002   -1.8849    0.0000 O   0  0  0  0  0  0  0  0  0  0  0  0
  1  2  1  0
  2  3  1  0
  2  4  1  0
  4  5  2  0
  5  6  1  0
  6  7  1  0
  7  8  2  0
  8  9  1  0
  9 10  1  0
 10 11  1  0
  9 12  2  0
 12 13  1  0
  4 14  1  0
 14 15  1  0
 14 16  2  0
 13  6  2  0
M  ISO  3   1   1   3   3  15   2
M  END
>  <symbol>  (1102) 
Tyr_ab_dehydroMe_Z

>  <m_abbr>  (1102) 
Tyr_ab_dehydroMe_Z

>  <m_name>  (1102) 
(Z)-2-amino-3-(4-methoxyphenyl)prop-2-enoic acid

>  <m_type>  (1102) 
aa

>  <m_subtype>  (1102) 
modified

>  <m_Rgroups>  (1102) 
[H],[OH],[H]

>  <m_chem_types>  (1102) 
1:backbone_n,2:backbone_c,3:backbone_n_mod

>  <m_activation_policy>  (1102) 
canonical-sites-v1

$$$$

     RDKit          2D

 17 17  0  0  0  0  0  0  0  0999 V2000
   -4.9443   -0.5223    0.0000 R   0  0  0  0  0  1  0  0  0  0  0  0
   -3.6020   -1.1919    0.0000 N   0  0  0  0  0  0  0  0  0  0  0  0
   -3.5108   -2.6891    0.0000 R   0  0  0  0  0  1  0  0  0  0  0  0
   -2.3510   -0.3643    0.0000 C   0  0  0  0  0  0  0  0  0  0  0  0
   -1.0088   -1.0339    0.0000 C   0  0  0  0  0  0  0  0  0  0  0  0
    0.2422   -0.2062    0.0000 C   0  0  0  0  0  0  0  0  0  0  0  0
    0.1510    1.2910    0.0000 C   0  0  0  0  0  0  0  0  0  0  0  0
    1.4020    2.1186    0.0000 C   0  0  0  0  0  0  0  0  0  0  0  0
    2.7443    1.4490    0.0000 C   0  0  0  0  0  0  0  0  0  0  0  0
    2.8355   -0.0482    0.0000 C   0  0  0  0  0  0  0  0  0  0  0  0
    4.1778   -0.7178    0.0000 N   0  0  0  0  0  0  0  0  0  0  0  0
    5.4288    0.1098    0.0000 O   0  0  0  0  0  0  0  0  0  0  0  0
    4.2690   -2.2150    0.0000 O   0  0  0  0  0  0  0  0  0  0  0  0
    1.5845   -0.8758    0.0000 C   0  0  0  0  0  0  0  0  0  0  0  0
   -2.4423    1.1330    0.0000 C   0  0  0  0  0  0  0  0  0  0  0  0
   -3.7845    1.8026    0.0000 R   0  0  0  0  0  1  0  0  0  0  0  0
   -1.1912    1.9606    0.0000 O   0  0  0  0  0  0  0  0  0  0  0  0
  1  2  1  0
  2  3  1  0
  2  4  1  0
  4  5  2  0
  5  6  1  0
  6  7  1  0
  7  8  2  0
  8  9  1  0
  9 10  2  0
 10 11  1  0
 11 12  2  0
 11 13  1  0
 10 14  1  0
  4 15  1  0
 15 16  1  0
 15 17  2  0
 14  6  2  0
M  CHG  2  11   1  13  -1
M  ISO  3   1   1   3   3  16   2
M  END
>  <symbol>  (1103) 
Phe_ab_dehydro_3NO2_E

>  <m_abbr>  (1103) 
Phe_ab_dehydro_3NO2_E

>  <m_name>  (1103) 
(E)-2-amino-3-(3-nitrophenyl)prop-2-enoic acid

>  <m_type>  (1103) 
aa

>  <m_subtype>  (1103) 
modified

>  <m_Rgroups>  (1103) 
[H],[OH],[H]

>  <m_chem_types>  (1103) 
1:backbone_n,2:backbone_c,3:backbone_n_mod

>  <m_activation_policy>  (1103) 
canonical-sites-v1

$$$$

     RDKit          2D

 17 17  0  0  0  0  0  0  0  0999 V2000
    2.2179    2.4724    0.0000 R   0  0  0  0  0  1  0  0  0  0  0  0
    1.4389    1.1906    0.0000 N   0  0  0  0  0  0  0  0  0  0  0  0
   -0.0607    1.2243    0.0000 R   0  0  0  0  0  1  0  0  0  0  0  0
    2.1595   -0.1250    0.0000 C   0  0  0  0  0  0  0  0  0  0  0  0
    1.3805   -1.4068    0.0000 C   0  0  0  0  0  0  0  0  0  0  0  0
   -0.1191   -1.3731    0.0000 C   0  0  0  0  0  0  0  0  0  0  0  0
   -0.8981   -2.6550    0.0000 C   0  0  0  0  0  0  0  0  0  0  0  0
   -2.3978   -2.6213    0.0000 C   0  0  0  0  0  0  0  0  0  0  0  0
   -3.1184   -1.3057    0.0000 C   0  0  0  0  0  0  0  0  0  0  0  0
   -2.3394   -0.0238    0.0000 C   0  0  0  0  0  0  0  0  0  0  0  0
   -3.0600    1.2917    0.0000 N   0  0  0  0  0  0  0  0  0  0  0  0
   -4.5596    1.3254    0.0000 O   0  0  0  0  0  0  0  0  0  0  0  0
   -2.2810    2.5736    0.0000 O   0  0  0  0  0  0  0  0  0  0  0  0
   -0.8397   -0.0576    0.0000 C   0  0  0  0  0  0  0  0  0  0  0  0
    3.6591   -0.1587    0.0000 C   0  0  0  0  0  0  0  0  0  0  0  0
    4.4381    1.1232    0.0000 R   0  0  0  0  0  1  0  0  0  0  0  0
    4.3797   -1.4743    0.0000 O   0  0  0  0  0  0  0  0  0  0  0  0
  1  2  1  0
  2  3  1  0
  2  4  1  0
  4  5  2  0
  5  6  1  0
  6  7  1  0
  7  8  2  0
  8  9  1  0
  9 10  2  0
 10 11  1  0
 11 12  2  0
 11 13  1  0
 10 14  1  0
  4 15  1  0
 15 16  1  0
 15 17  2  0
 14  6  2  0
M  CHG  2  11   1  13  -1
M  ISO  3   1   1   3   3  16   2
M  END
>  <symbol>  (1104) 
Phe_ab_dehydro_3NO2_Z

>  <m_abbr>  (1104) 
Phe_ab_dehydro_3NO2_Z

>  <m_name>  (1104) 
(Z)-2-amino-3-(3-nitrophenyl)prop-2-enoic acid

>  <m_type>  (1104) 
aa

>  <m_subtype>  (1104) 
modified

>  <m_Rgroups>  (1104) 
[H],[OH],[H]

>  <m_chem_types>  (1104) 
1:backbone_n,2:backbone_c,3:backbone_n_mod

>  <m_activation_policy>  (1104) 
canonical-sites-v1

$$$$

     RDKit          2D

 14 13  0  0  0  0  0  0  0  0999 V2000
   -3.8537   -0.5799    0.0000 R   0  0  0  0  0  1  0  0  0  0  0  0
   -2.4576   -1.1282    0.0000 N   0  0  0  0  0  0  0  0  0  0  0  0
   -2.2344   -2.6115    0.0000 C   0  0  0  0  0  0  0  0  0  0  0  0
   -1.2846   -0.1933    0.0000 C   0  0  0  0  0  0  0  0  0  0  0  0
    0.1116   -0.7417    0.0000 C   0  0  0  0  0  0  0  0  0  0  0  0
    1.2846    0.1933    0.0000 C   0  0  0  0  0  0  0  0  0  0  0  0
    1.0614    1.6766    0.0000 C   0  0  0  0  0  0  0  0  0  0  0  0
    2.6808   -0.3551    0.0000 C   0  0  0  0  0  0  0  0  0  0  0  0
    4.0769   -0.9034    0.0000 Cl  0  0  0  0  0  0  0  0  0  0  0  0
    3.2291    1.0411    0.0000 Cl  0  0  0  0  0  0  0  0  0  0  0  0
    2.1324   -1.7512    0.0000 Cl  0  0  0  0  0  0  0  0  0  0  0  0
   -1.5078    1.2900    0.0000 C   0  0  0  0  0  0  0  0  0  0  0  0
   -2.9040    1.8384    0.0000 R   0  0  0  0  0  1  0  0  0  0  0  0
   -0.3348    2.2250    0.0000 O   0  0  0  0  0  0  0  0  0  0  0  0
  1  2  1  0
  2  3  1  0
  2  4  1  0
  4  5  2  0
  5  6  1  0
  6  7  1  1
  6  8  1  0
  8  9  1  0
  8 10  1  0
  8 11  1  0
  4 12  1  0
 12 13  1  0
 12 14  2  0
M  ISO  2   1   1  13   2
M  END
>  <symbol>  (1105) 
meDha_CCl3Me2_E

>  <m_abbr>  (1105) 
meDha_CCl3Me2_E

>  <m_name>  (1105) 
(E)-N-Me-dehydro-2-amino-4-methyl-5,5,5-trichloro-pent-2-enoic acid

>  <m_type>  (1105) 
aa

>  <m_subtype>  (1105) 
modified

>  <m_Rgroups>  (1105) 
[H],[OH]

>  <m_chem_types>  (1105) 
1:backbone_n,2:backbone_c

>  <m_activation_policy>  (1105) 
canonical-sites-v1

$$$$

     RDKit          2D

 14 13  0  0  0  0  0  0  0  0999 V2000
    2.9040    1.8384    0.0000 R   0  0  0  0  0  1  0  0  0  0  0  0
    1.5078    1.2900    0.0000 N   0  0  0  0  0  0  0  0  0  0  0  0
    0.3348    2.2250    0.0000 C   0  0  0  0  0  0  0  0  0  0  0  0
    1.2846   -0.1933    0.0000 C   0  0  0  0  0  0  0  0  0  0  0  0
   -0.1116   -0.7417    0.0000 C   0  0  0  0  0  0  0  0  0  0  0  0
   -1.2846    0.1933    0.0000 C   0  0  0  0  0  0  0  0  0  0  0  0
   -1.0614    1.6766    0.0000 C   0  0  0  0  0  0  0  0  0  0  0  0
   -2.6808   -0.3551    0.0000 C   0  0  0  0  0  0  0  0  0  0  0  0
   -4.0769   -0.9034    0.0000 Cl  0  0  0  0  0  0  0  0  0  0  0  0
   -2.1324   -1.7512    0.0000 Cl  0  0  0  0  0  0  0  0  0  0  0  0
   -3.2291    1.0411    0.0000 Cl  0  0  0  0  0  0  0  0  0  0  0  0
    2.4576   -1.1282    0.0000 C   0  0  0  0  0  0  0  0  0  0  0  0
    3.8537   -0.5799    0.0000 R   0  0  0  0  0  1  0  0  0  0  0  0
    2.2344   -2.6115    0.0000 O   0  0  0  0  0  0  0  0  0  0  0  0
  1  2  1  0
  2  3  1  0
  2  4  1  0
  4  5  2  0
  5  6  1  0
  6  7  1  6
  6  8  1  0
  8  9  1  0
  8 10  1  0
  8 11  1  0
  4 12  1  0
 12 13  1  0
 12 14  2  0
M  ISO  2   1   1  13   2
M  END
>  <symbol>  (1106) 
meDha_CCl3Me2_Z

>  <m_abbr>  (1106) 
meDha_CCl3Me2_Z

>  <m_name>  (1106) 
(Z)-N-Me-dehydro-2-amino-4-methyl-5,5,5-trichloro-pent-2-enoic acid

>  <m_type>  (1106) 
aa

>  <m_subtype>  (1106) 
modified

>  <m_Rgroups>  (1106) 
[H],[OH]

>  <m_chem_types>  (1106) 
1:backbone_n,2:backbone_c

>  <m_activation_policy>  (1106) 
canonical-sites-v1

$$$$

     RDKit          2D

 14 13  0  0  0  0  0  0  0  0999 V2000
   -3.8537   -0.5799    0.0000 R   0  0  0  0  0  1  0  0  0  0  0  0
   -2.4576   -1.1282    0.0000 N   0  0  0  0  0  0  0  0  0  0  0  0
   -2.2344   -2.6115    0.0000 C   0  0  0  0  0  0  0  0  0  0  0  0
   -1.2846   -0.1933    0.0000 C   0  0  0  0  0  0  0  0  0  0  0  0
    0.1116   -0.7417    0.0000 C   0  0  0  0  0  0  0  0  0  0  0  0
    1.2846    0.1933    0.0000 C   0  0  0  0  0  0  0  0  0  0  0  0
    1.0614    1.6766    0.0000 C   0  0  0  0  0  0  0  0  0  0  0  0
    2.6808   -0.3551    0.0000 C   0  0  0  0  0  0  0  0  0  0  0  0
    4.0769   -0.9034    0.0000 Cl  0  0  0  0  0  0  0  0  0  0  0  0
    3.2291    1.0411    0.0000 Cl  0  0  0  0  0  0  0  0  0  0  0  0
    2.1324   -1.7512    0.0000 Cl  0  0  0  0  0  0  0  0  0  0  0  0
   -1.5078    1.2900    0.0000 C   0  0  0  0  0  0  0  0  0  0  0  0
   -2.9040    1.8384    0.0000 R   0  0  0  0  0  1  0  0  0  0  0  0
   -0.3348    2.2250    0.0000 O   0  0  0  0  0  0  0  0  0  0  0  0
  1  2  1  0
  2  3  1  0
  2  4  1  0
  4  5  2  0
  5  6  1  0
  6  7  1  6
  6  8  1  0
  8  9  1  0
  8 10  1  0
  8 11  1  0
  4 12  1  0
 12 13  1  0
 12 14  2  0
M  ISO  2   1   1  13   2
M  END
>  <symbol>  (1107) 
meDha_CCl3Me2b_E

>  <m_abbr>  (1107) 
meDha_CCl3Me2b_E

>  <m_name>  (1107) 
(E)-N-Me-dehydro variant (beta R-stereo)

>  <m_type>  (1107) 
aa

>  <m_subtype>  (1107) 
modified

>  <m_Rgroups>  (1107) 
[H],[OH]

>  <m_chem_types>  (1107) 
1:backbone_n,2:backbone_c

>  <m_activation_policy>  (1107) 
canonical-sites-v1

$$$$

     RDKit          2D

 14 13  0  0  0  0  0  0  0  0999 V2000
    2.9040    1.8384    0.0000 R   0  0  0  0  0  1  0  0  0  0  0  0
    1.5078    1.2900    0.0000 N   0  0  0  0  0  0  0  0  0  0  0  0
    0.3348    2.2250    0.0000 C   0  0  0  0  0  0  0  0  0  0  0  0
    1.2846   -0.1933    0.0000 C   0  0  0  0  0  0  0  0  0  0  0  0
   -0.1116   -0.7417    0.0000 C   0  0  0  0  0  0  0  0  0  0  0  0
   -1.2846    0.1933    0.0000 C   0  0  0  0  0  0  0  0  0  0  0  0
   -1.0614    1.6766    0.0000 C   0  0  0  0  0  0  0  0  0  0  0  0
   -2.6808   -0.3551    0.0000 C   0  0  0  0  0  0  0  0  0  0  0  0
   -4.0769   -0.9034    0.0000 Cl  0  0  0  0  0  0  0  0  0  0  0  0
   -2.1324   -1.7512    0.0000 Cl  0  0  0  0  0  0  0  0  0  0  0  0
   -3.2291    1.0411    0.0000 Cl  0  0  0  0  0  0  0  0  0  0  0  0
    2.4576   -1.1282    0.0000 C   0  0  0  0  0  0  0  0  0  0  0  0
    3.8537   -0.5799    0.0000 R   0  0  0  0  0  1  0  0  0  0  0  0
    2.2344   -2.6115    0.0000 O   0  0  0  0  0  0  0  0  0  0  0  0
  1  2  1  0
  2  3  1  0
  2  4  1  0
  4  5  2  0
  5  6  1  0
  6  7  1  1
  6  8  1  0
  8  9  1  0
  8 10  1  0
  8 11  1  0
  4 12  1  0
 12 13  1  0
 12 14  2  0
M  ISO  2   1   1  13   2
M  END
>  <symbol>  (1108) 
meDha_CCl3Me2b_Z

>  <m_abbr>  (1108) 
meDha_CCl3Me2b_Z

>  <m_name>  (1108) 
(Z)-N-Me-dehydro variant (beta R-stereo)

>  <m_type>  (1108) 
aa

>  <m_subtype>  (1108) 
modified

>  <m_Rgroups>  (1108) 
[H],[OH]

>  <m_chem_types>  (1108) 
1:backbone_n,2:backbone_c

>  <m_activation_policy>  (1108) 
canonical-sites-v1

$$$$

     RDKit          2D

 13 12  0  0  0  0  0  0  0  0999 V2000
   -3.6603   -0.5247    0.0000 R   0  0  0  0  0  1  0  0  0  0  0  0
   -2.2769   -1.1044    0.0000 N   0  0  0  0  0  0  0  0  0  0  0  0
   -2.0872   -2.5924    0.0000 C   0  0  0  0  0  0  0  0  0  0  0  0
   -1.0831   -0.1962    0.0000 C   0  0  0  0  0  0  0  0  0  0  0  0
    0.3004   -0.7759    0.0000 C   0  0  0  0  0  0  0  0  0  0  0  0
    1.4942    0.1323    0.0000 C   0  0  0  0  0  0  0  0  0  0  0  0
    1.3045    1.6202    0.0000 C   0  0  0  0  0  0  0  0  0  0  0  0
    2.8776   -0.4475    0.0000 C   0  0  0  0  0  0  0  0  0  0  0  0
    4.0714    0.4608    0.0000 R   0  0  0  0  0  1  0  0  0  0  0  0
    3.0672   -1.9354    0.0000 Cl  0  0  0  0  0  0  0  0  0  0  0  0
   -1.2727    1.2918    0.0000 C   0  0  0  0  0  0  0  0  0  0  0  0
   -2.6562    1.8715    0.0000 R   0  0  0  0  0  1  0  0  0  0  0  0
   -0.0789    2.2000    0.0000 O   0  0  0  0  0  0  0  0  0  0  0  0
  1  2  1  0
  2  3  1  0
  2  4  1  0
  4  5  2  0
  5  6  1  0
  6  7  1  1
  6  8  1  0
  8  9  1  0
  8 10  1  0
  4 11  1  0
 11 12  1  0
 11 13  2  0
M  ISO  3   1   1   9   4  12   2
M  END
>  <symbol>  (1109) 
meDha_CHCl2Me2_E

>  <m_abbr>  (1109) 
meDha_CHCl2Me2_E

>  <m_name>  (1109) 
(E)-N-Me-dehydro-2-amino-4-methyl-5,5-dichloro-pent-2-enoic acid

>  <m_type>  (1109) 
aa

>  <m_subtype>  (1109) 
modified

>  <m_Rgroups>  (1109) 
[H],[OH],None,[Cl]

>  <m_chem_types>  (1109) 
1:backbone_n,2:backbone_c,4:alkyl_halide_c

>  <m_activation_policy>  (1109) 
canonical-sites-v1

$$$$

     RDKit          2D

 13 12  0  0  0  0  0  0  0  0999 V2000
    2.6562    1.8715    0.0000 R   0  0  0  0  0  1  0  0  0  0  0  0
    1.2727    1.2918    0.0000 N   0  0  0  0  0  0  0  0  0  0  0  0
    0.0789    2.2000    0.0000 C   0  0  0  0  0  0  0  0  0  0  0  0
    1.0831   -0.1962    0.0000 C   0  0  0  0  0  0  0  0  0  0  0  0
   -0.3004   -0.7759    0.0000 C   0  0  0  0  0  0  0  0  0  0  0  0
   -1.4942    0.1323    0.0000 C   0  0  0  0  0  0  0  0  0  0  0  0
   -1.3045    1.6202    0.0000 C   0  0  0  0  0  0  0  0  0  0  0  0
   -2.8776   -0.4475    0.0000 C   0  0  0  0  0  0  0  0  0  0  0  0
   -4.0714    0.4608    0.0000 R   0  0  0  0  0  1  0  0  0  0  0  0
   -3.0672   -1.9354    0.0000 Cl  0  0  0  0  0  0  0  0  0  0  0  0
    2.2769   -1.1044    0.0000 C   0  0  0  0  0  0  0  0  0  0  0  0
    3.6603   -0.5247    0.0000 R   0  0  0  0  0  1  0  0  0  0  0  0
    2.0872   -2.5924    0.0000 O   0  0  0  0  0  0  0  0  0  0  0  0
  1  2  1  0
  2  3  1  0
  2  4  1  0
  4  5  2  0
  5  6  1  0
  6  7  1  6
  6  8  1  0
  8  9  1  0
  8 10  1  0
  4 11  1  0
 11 12  1  0
 11 13  2  0
M  ISO  3   1   1   9   4  12   2
M  END
>  <symbol>  (1110) 
meDha_CHCl2Me2_Z

>  <m_abbr>  (1110) 
meDha_CHCl2Me2_Z

>  <m_name>  (1110) 
(Z)-N-Me-dehydro-2-amino-4-methyl-5,5-dichloro-pent-2-enoic acid

>  <m_type>  (1110) 
aa

>  <m_subtype>  (1110) 
modified

>  <m_Rgroups>  (1110) 
[H],[OH],None,[Cl]

>  <m_chem_types>  (1110) 
1:backbone_n,2:backbone_c,4:alkyl_halide_c

>  <m_activation_policy>  (1110) 
canonical-sites-v1

$$$$

     RDKit          2D

 16 15  0  0  0  0  0  0  0  0999 V2000
    3.5552    1.6477    0.0000 R   0  0  0  0  0  1  0  0  0  0  0  0
    2.0698    1.4389    0.0000 N   0  0  0  0  0  0  0  0  0  0  0  0
    1.1463    2.6208    0.0000 R   0  0  0  0  0  1  0  0  0  0  0  0
    1.5080    0.0481    0.0000 C   0  0  0  0  0  0  0  0  0  0  0  0
    2.4316   -1.1339    0.0000 C   0  0  0  0  0  0  0  0  0  0  0  0
    3.9170   -0.9250    0.0000 R   0  0  0  0  0  1  0  0  0  0  0  0
    1.8697   -2.5247    0.0000 O   0  0  0  0  0  0  0  0  0  0  0  0
    0.0226   -0.1608    0.0000 C   0  0  0  0  0  0  0  0  0  0  0  0
   -0.5392   -1.5516    0.0000 O   0  0  0  0  0  0  0  0  0  0  0  0
    0.3844   -2.7336    0.0000 R   0  0  0  0  0  1  0  0  0  0  0  0
   -0.9010    1.0212    0.0000 C   0  0  0  0  0  0  0  0  0  0  0  0
   -0.3391    2.4120    0.0000 C   0  0  0  0  0  0  0  0  0  0  0  0
   -2.3863    0.8123    0.0000 C   0  0  0  0  0  0  0  0  0  0  0  0
   -2.9482   -0.5785    0.0000 C   0  0  0  0  0  0  0  0  0  0  0  0
   -4.4336   -0.7874    0.0000 C   0  0  0  0  0  0  0  0  0  0  0  0
   -5.3571    0.3946    0.0000 C   0  0  0  0  0  0  0  0  0  0  0  0
  1  2  1  0
  2  3  1  0
  4  2  1  6
  4  5  1  0
  5  6  1  0
  5  7  2  0
  4  8  1  0
  8  9  1  6
  9 10  1  0
  8 11  1  0
 11 12  1  1
 11 13  1  0
 13 14  1  0
 14 15  2  0
 15 16  1  0
M  ISO  4   1   1   3   3   6   2  10   4
M  END
>  <symbol>  (1111) 
Bmt_Z

>  <m_abbr>  (1111) 
Bmt_Z

>  <m_name>  (1111) 
(Z)-(2S,3R,4R)-2-amino-3-hydroxy-4-methyloct-6-enoic acid

>  <m_type>  (1111) 
aa

>  <m_subtype>  (1111) 
modified

>  <m_Rgroups>  (1111) 
[H],[OH],[H],[H]

>  <m_chem_types>  (1111) 
1:backbone_n,2:backbone_c,3:backbone_n_mod,4:hydroxyl

>  <m_activation_policy>  (1111) 
canonical-sites-v1

$$$$

     RDKit          2D

 16 15  0  0  0  0  0  0  0  0999 V2000
    3.5552    1.6477    0.0000 R   0  0  0  0  0  1  0  0  0  0  0  0
    2.0698    1.4389    0.0000 N   0  0  0  0  0  0  0  0  0  0  0  0
    1.1463    2.6208    0.0000 R   0  0  0  0  0  1  0  0  0  0  0  0
    1.5080    0.0481    0.0000 C   0  0  0  0  0  0  0  0  0  0  0  0
    2.4316   -1.1339    0.0000 C   0  0  0  0  0  0  0  0  0  0  0  0
    3.9170   -0.9250    0.0000 R   0  0  0  0  0  1  0  0  0  0  0  0
    1.8697   -2.5247    0.0000 O   0  0  0  0  0  0  0  0  0  0  0  0
    0.0226   -0.1608    0.0000 C   0  0  0  0  0  0  0  0  0  0  0  0
   -0.5392   -1.5516    0.0000 O   0  0  0  0  0  0  0  0  0  0  0  0
    0.3844   -2.7336    0.0000 R   0  0  0  0  0  1  0  0  0  0  0  0
   -0.9010    1.0212    0.0000 C   0  0  0  0  0  0  0  0  0  0  0  0
   -0.3391    2.4120    0.0000 C   0  0  0  0  0  0  0  0  0  0  0  0
   -2.3863    0.8123    0.0000 C   0  0  0  0  0  0  0  0  0  0  0  0
   -2.9482   -0.5785    0.0000 C   0  0  0  0  0  0  0  0  0  0  0  0
   -4.4336   -0.7874    0.0000 C   0  0  0  0  0  0  0  0  0  0  0  0
   -5.3571    0.3946    0.0000 C   0  0  0  0  0  0  0  0  0  0  0  0
  1  2  1  0
  2  3  1  0
  4  2  1  1
  4  5  1  0
  5  6  1  0
  5  7  2  0
  4  8  1  0
  8  9  1  1
  9 10  1  0
  8 11  1  0
 11 12  1  6
 11 13  1  0
 13 14  1  0
 14 15  2  0
 15 16  1  0
M  ISO  4   1   1   3   3   6   2  10   4
M  END
>  <symbol>  (1112) 
D_Bmt_Z

>  <m_abbr>  (1112) 
D_Bmt_Z

>  <m_name>  (1112) 
(Z)-(2R,3S,4S)-2-amino-3-hydroxy-4-methyloct-6-enoic acid

>  <m_type>  (1112) 
aa

>  <m_subtype>  (1112) 
modified

>  <m_Rgroups>  (1112) 
[H],[OH],[H],[H]

>  <m_chem_types>  (1112) 
1:backbone_n,2:backbone_c,3:backbone_n_mod,4:hydroxyl

>  <m_activation_policy>  (1112) 
canonical-sites-v1

$$$$

     RDKit          2D

 15 15  0  0  0  0  0  0  0  0999 V2000
   -3.0383    2.3788    0.0000 R   0  0  0  0  0  1  0  0  0  0  0  0
   -1.9222    1.3767    0.0000 O   0  0  0  0  0  0  0  0  0  0  0  0
   -2.2320   -0.0910    0.0000 C   0  0  0  0  0  0  0  0  0  0  0  0
   -1.1158   -1.0931    0.0000 C   0  0  0  0  0  0  0  0  0  0  0  0
    0.3101   -0.6276    0.0000 C   0  0  0  0  0  0  0  0  0  0  0  0
    0.6199    0.8401    0.0000 C   0  0  0  0  0  0  0  0  0  0  0  0
    2.0458    1.3056    0.0000 C   0  0  0  0  0  0  0  0  0  0  0  0
    3.1619    0.3035    0.0000 C   0  0  0  0  0  0  0  0  0  0  0  0
    4.5879    0.7690    0.0000 O   0  0  0  0  0  0  0  0  0  0  0  0
    5.7040   -0.2331    0.0000 R   0  0  0  0  0  1  0  0  0  0  0  0
    2.8521   -1.1642    0.0000 C   0  0  0  0  0  0  0  0  0  0  0  0
    1.4262   -1.6297    0.0000 C   0  0  0  0  0  0  0  0  0  0  0  0
   -3.6579   -0.5565    0.0000 C   0  0  0  0  0  0  0  0  0  0  0  0
   -4.7740    0.4456    0.0000 R   0  0  0  0  0  1  0  0  0  0  0  0
   -3.9677   -2.0242    0.0000 O   0  0  0  0  0  0  0  0  0  0  0  0
  1  2  1  0
  2  3  1  0
  3  4  1  6
  4  5  1  0
  5  6  1  0
  6  7  2  0
  7  8  1  0
  8  9  1  0
  9 10  1  0
  8 11  2  0
 11 12  1  0
  3 13  1  0
 13 14  1  0
 13 15  2  0
 12  5  2  0
M  ISO  3   1   1  10   4  14   2
M  END
>  <symbol>  (1113) 
HTyr

>  <m_abbr>  (1113) 
HTyr

>  <m_name>  (1113) 
(2S)-2-hydroxy-3-(4-hydroxyphenyl)propanoic acid

>  <m_type>  (1113) 
aa

>  <m_subtype>  (1113) 
depsi

>  <m_Rgroups>  (1113) 
[H],[OH],None,[H]

>  <m_chem_types>  (1113) 
1:backbone_o,2:backbone_c,4:aryl_phenol_o

>  <m_activation_policy>  (1113) 
canonical-sites-v1

$$$$

     RDKit          2D

 10  9  0  0  0  0  0  0  0  0999 V2000
   -2.1490    2.0771    0.0000 R   0  0  0  0  0  1  0  0  0  0  0  0
   -0.7033    1.6772    0.0000 O   0  0  0  0  0  0  0  0  0  0  0  0
   -0.3268    0.2252    0.0000 C   0  0  0  0  0  0  0  0  0  0  0  0
   -1.3960   -0.8269    0.0000 C   0  0  0  0  0  0  0  0  0  0  0  0
   -1.0195   -2.2788    0.0000 R   0  0  0  0  0  1  0  0  0  0  0  0
   -2.8417   -0.4269    0.0000 O   0  0  0  0  0  0  0  0  0  0  0  0
    1.1189   -0.1748    0.0000 C   0  0  0  0  0  0  0  0  0  0  0  0
    1.4954   -1.6267    0.0000 C   0  0  0  0  0  0  0  0  0  0  0  0
    2.1881    0.8773    0.0000 C   0  0  0  0  0  0  0  0  0  0  0  0
    3.6338    0.4773    0.0000 C   0  0  0  0  0  0  0  0  0  0  0  0
  1  2  1  0
  3  2  1  6
  3  4  1  0
  4  5  1  0
  4  6  2  0
  3  7  1  0
  7  8  1  6
  7  9  1  0
  9 10  1  0
M  ISO  2   1   1   5   2
M  END
>  <symbol>  (1114) 
HIle

>  <m_abbr>  (1114) 
HIle

>  <m_name>  (1114) 
(2S,3S)-2-hydroxy-3-methylpentanoic acid

>  <m_type>  (1114) 
aa

>  <m_subtype>  (1114) 
depsi

>  <m_Rgroups>  (1114) 
[H],[OH]

>  <m_chem_types>  (1114) 
1:backbone_o,2:backbone_c

>  <m_activation_policy>  (1114) 
canonical-sites-v1

$$$$

     RDKit          2D

 10  9  0  0  0  0  0  0  0  0999 V2000
   -3.4137    0.8883    0.0000 R   0  0  0  0  0  1  0  0  0  0  0  0
   -2.0182    1.4385    0.0000 O   0  0  0  0  0  0  0  0  0  0  0  0
   -0.8441    0.5050    0.0000 C   0  0  0  0  0  0  0  0  0  0  0  0
    0.5514    1.0552    0.0000 C   0  0  0  0  0  0  0  0  0  0  0  0
    1.7256    0.1218    0.0000 C   0  0  0  0  0  0  0  0  0  0  0  0
    3.1211    0.6719    0.0000 S   0  0  0  0  0  0  0  0  0  0  0  0
    4.2952   -0.2615    0.0000 C   0  0  0  0  0  0  0  0  0  0  0  0
   -1.0653   -0.9785    0.0000 C   0  0  0  0  0  0  0  0  0  0  0  0
    0.1088   -1.9120    0.0000 R   0  0  0  0  0  1  0  0  0  0  0  0
   -2.4608   -1.5287    0.0000 O   0  0  0  0  0  0  0  0  0  0  0  0
  1  2  1  0
  2  3  1  0
  3  4  1  6
  4  5  1  0
  5  6  1  0
  6  7  1  0
  3  8  1  0
  8  9  1  0
  8 10  2  0
M  ISO  2   1   1   9   2
M  END
>  <symbol>  (1115) 
HMet

>  <m_abbr>  (1115) 
HMet

>  <m_name>  (1115) 
(2S)-2-hydroxy-4-(methylsulfanyl)butanoic acid

>  <m_type>  (1115) 
aa

>  <m_subtype>  (1115) 
depsi

>  <m_Rgroups>  (1115) 
[H],[OH]

>  <m_chem_types>  (1115) 
1:backbone_o,2:backbone_c

>  <m_activation_policy>  (1115) 
canonical-sites-v1

$$$$

     RDKit          2D

  9  8  0  0  0  0  0  0  0  0999 V2000
    1.6244    2.5927    0.0000 R   0  0  0  0  0  1  0  0  0  0  0  0
    1.7749    1.1003    0.0000 O   0  0  0  0  0  0  0  0  0  0  0  0
    0.5577    0.2238    0.0000 C   0  0  0  0  0  0  0  0  0  0  0  0
   -0.8100    0.8396    0.0000 C   0  0  0  0  0  0  0  0  0  0  0  0
   -2.0273   -0.0369    0.0000 S   0  0  0  0  0  0  0  0  0  0  0  0
   -3.3950    0.5789    0.0000 R   0  0  0  0  0  1  0  0  0  0  0  0
    0.7082   -1.2687    0.0000 C   0  0  0  0  0  0  0  0  0  0  0  0
   -0.5090   -2.1452    0.0000 R   0  0  0  0  0  1  0  0  0  0  0  0
    2.0760   -1.8845    0.0000 O   0  0  0  0  0  0  0  0  0  0  0  0
  1  2  1  0
  2  3  1  0
  3  4  1  1
  4  5  1  0
  5  6  1  0
  3  7  1  0
  7  8  1  0
  7  9  2  0
M  ISO  3   1   1   6   4   8   2
M  END
>  <symbol>  (1116) 
HCys

>  <m_abbr>  (1116) 
HCys

>  <m_name>  (1116) 
(2S)-2-hydroxy-3-sulfanylpropanoic acid

>  <m_type>  (1116) 
aa

>  <m_subtype>  (1116) 
depsi

>  <m_Rgroups>  (1116) 
[H],[OH],None,[H]

>  <m_chem_types>  (1116) 
1:backbone_o,2:backbone_c,4:thiol

>  <m_activation_policy>  (1116) 
canonical-sites-v1

$$$$

     RDKit          2D

  9  8  0  0  0  0  0  0  0  0999 V2000
   -2.8857    1.0168    0.0000 R   0  0  0  0  0  1  0  0  0  0  0  0
   -1.4625    1.4907    0.0000 O   0  0  0  0  0  0  0  0  0  0  0  0
   -0.3405    0.4951    0.0000 C   0  0  0  0  0  0  0  0  0  0  0  0
    1.0826    0.9690    0.0000 C   0  0  0  0  0  0  0  0  0  0  0  0
    2.2046   -0.0266    0.0000 O   0  0  0  0  0  0  0  0  0  0  0  0
    3.6278    0.4473    0.0000 R   0  0  0  0  0  1  0  0  0  0  0  0
   -0.6417   -0.9743    0.0000 C   0  0  0  0  0  0  0  0  0  0  0  0
    0.4803   -1.9699    0.0000 R   0  0  0  0  0  1  0  0  0  0  0  0
   -2.0649   -1.4482    0.0000 O   0  0  0  0  0  0  0  0  0  0  0  0
  1  2  1  0
  2  3  1  0
  3  4  1  6
  4  5  1  0
  5  6  1  0
  3  7  1  0
  7  8  1  0
  7  9  2  0
M  ISO  3   1   1   6   4   8   2
M  END
>  <symbol>  (1117) 
HSer

>  <m_abbr>  (1117) 
HSer

>  <m_name>  (1117) 
(2S)-2,3-dihydroxypropanoic acid

>  <m_type>  (1117) 
aa

>  <m_subtype>  (1117) 
depsi

>  <m_Rgroups>  (1117) 
[H],[OH],None,[H]

>  <m_chem_types>  (1117) 
1:backbone_o,2:backbone_c,4:hydroxyl

>  <m_activation_policy>  (1117) 
canonical-sites-v1

$$$$

     RDKit          2D

 10  9  0  0  0  0  0  0  0  0999 V2000
   -2.1490    2.0771    0.0000 R   0  0  0  0  0  1  0  0  0  0  0  0
   -0.7033    1.6772    0.0000 O   0  0  0  0  0  0  0  0  0  0  0  0
   -0.3268    0.2252    0.0000 C   0  0  0  0  0  0  0  0  0  0  0  0
   -1.3960   -0.8269    0.0000 C   0  0  0  0  0  0  0  0  0  0  0  0
   -1.0195   -2.2788    0.0000 R   0  0  0  0  0  1  0  0  0  0  0  0
   -2.8417   -0.4269    0.0000 O   0  0  0  0  0  0  0  0  0  0  0  0
    1.1189   -0.1748    0.0000 C   0  0  0  0  0  0  0  0  0  0  0  0
    1.4954   -1.6267    0.0000 C   0  0  0  0  0  0  0  0  0  0  0  0
    2.1881    0.8773    0.0000 O   0  0  0  0  0  0  0  0  0  0  0  0
    3.6338    0.4773    0.0000 R   0  0  0  0  0  1  0  0  0  0  0  0
  1  2  1  0
  3  2  1  6
  3  4  1  0
  4  5  1  0
  4  6  2  0
  3  7  1  0
  7  8  1  6
  7  9  1  0
  9 10  1  0
M  ISO  3   1   1   5   2  10   4
M  END
>  <symbol>  (1118) 
HThr

>  <m_abbr>  (1118) 
HThr

>  <m_name>  (1118) 
(2S,3R)-2,3-dihydroxybutanoic acid

>  <m_type>  (1118) 
aa

>  <m_subtype>  (1118) 
depsi

>  <m_Rgroups>  (1118) 
[H],[OH],None,[H]

>  <m_chem_types>  (1118) 
1:backbone_o,2:backbone_c,4:hydroxyl

>  <m_activation_policy>  (1118) 
canonical-sites-v1

$$$$

     RDKit          2D

 10  9  0  0  0  0  0  0  0  0999 V2000
   -3.1802    0.8418    0.0000 R   0  0  0  0  0  1  0  0  0  0  0  0
   -1.8138    1.4604    0.0000 O   0  0  0  0  0  0  0  0  0  0  0  0
   -0.5948    0.5863    0.0000 C   0  0  0  0  0  0  0  0  0  0  0  0
    0.7717    1.2050    0.0000 C   0  0  0  0  0  0  0  0  0  0  0  0
    1.9907    0.3309    0.0000 C   0  0  0  0  0  0  0  0  0  0  0  0
    3.3572    0.9495    0.0000 R   0  0  0  0  0  1  0  0  0  0  0  0
    1.8433   -1.1619    0.0000 O   0  0  0  0  0  0  0  0  0  0  0  0
   -0.7422   -0.9064    0.0000 C   0  0  0  0  0  0  0  0  0  0  0  0
    0.4768   -1.7805    0.0000 R   0  0  0  0  0  1  0  0  0  0  0  0
   -2.1087   -1.5251    0.0000 O   0  0  0  0  0  0  0  0  0  0  0  0
  1  2  1  0
  2  3  1  0
  3  4  1  6
  4  5  1  0
  5  6  1  0
  5  7  2  0
  3  8  1  0
  8  9  1  0
  8 10  2  0
M  ISO  3   1   1   6   4   9   2
M  END
>  <symbol>  (1119) 
HAsp

>  <m_abbr>  (1119) 
HAsp

>  <m_name>  (1119) 
(2S)-2-hydroxybutanedioic acid (malic acid)

>  <m_type>  (1119) 
aa

>  <m_subtype>  (1119) 
depsi

>  <m_Rgroups>  (1119) 
[H],[OH],None,[OH]

>  <m_chem_types>  (1119) 
1:backbone_o,2:backbone_c,4:carboxyl

>  <m_activation_policy>  (1119) 
canonical-sites-v1

$$$$

     RDKit          2D

 11 10  0  0  0  0  0  0  0  0999 V2000
   -3.5967    1.1676    0.0000 R   0  0  0  0  0  1  0  0  0  0  0  0
   -2.1418    1.5326    0.0000 O   0  0  0  0  0  0  0  0  0  0  0  0
   -1.0983    0.4550    0.0000 C   0  0  0  0  0  0  0  0  0  0  0  0
    0.3567    0.8200    0.0000 C   0  0  0  0  0  0  0  0  0  0  0  0
    1.4002   -0.2575    0.0000 C   0  0  0  0  0  0  0  0  0  0  0  0
    2.8551    0.1074    0.0000 C   0  0  0  0  0  0  0  0  0  0  0  0
    3.8986   -0.9701    0.0000 R   0  0  0  0  0  1  0  0  0  0  0  0
    3.2665    1.5499    0.0000 O   0  0  0  0  0  0  0  0  0  0  0  0
   -1.5097   -0.9874    0.0000 C   0  0  0  0  0  0  0  0  0  0  0  0
   -0.4661   -2.0650    0.0000 R   0  0  0  0  0  1  0  0  0  0  0  0
   -2.9646   -1.3524    0.0000 O   0  0  0  0  0  0  0  0  0  0  0  0
  1  2  1  0
  2  3  1  0
  3  4  1  6
  4  5  1  0
  5  6  1  0
  6  7  1  0
  6  8  2  0
  3  9  1  0
  9 10  1  0
  9 11  2  0
M  ISO  3   1   1   7   4  10   2
M  END
>  <symbol>  (1120) 
HGlu

>  <m_abbr>  (1120) 
HGlu

>  <m_name>  (1120) 
(2S)-2-hydroxypentanedioic acid

>  <m_type>  (1120) 
aa

>  <m_subtype>  (1120) 
depsi

>  <m_Rgroups>  (1120) 
[H],[OH],None,[OH]

>  <m_chem_types>  (1120) 
1:backbone_o,2:backbone_c,4:carboxyl

>  <m_activation_policy>  (1120) 
canonical-sites-v1

$$$$

     RDKit          2D

 12 11  0  0  0  0  0  0  0  0999 V2000
   -3.7182    1.1938    0.0000 R   0  0  0  0  0  1  0  0  0  0  0  0
   -2.2754    1.6040    0.0000 O   0  0  0  0  0  0  0  0  0  0  0  0
   -1.1987    0.5596    0.0000 C   0  0  0  0  0  0  0  0  0  0  0  0
    0.2441    0.9697    0.0000 C   0  0  0  0  0  0  0  0  0  0  0  0
    1.3208   -0.0747    0.0000 C   0  0  0  0  0  0  0  0  0  0  0  0
    0.9546   -1.5293    0.0000 O   0  0  0  0  0  0  0  0  0  0  0  0
    2.7636    0.3355    0.0000 N   0  0  0  0  0  0  0  0  0  0  0  0
    3.8402   -0.7089    0.0000 R   0  0  0  0  0  1  0  0  0  0  0  0
    3.1298    1.7901    0.0000 R   0  0  0  0  0  1  0  0  0  0  0  0
   -1.5649   -0.8951    0.0000 C   0  0  0  0  0  0  0  0  0  0  0  0
   -0.4882   -1.9395    0.0000 R   0  0  0  0  0  1  0  0  0  0  0  0
   -3.0077   -1.3053    0.0000 O   0  0  0  0  0  0  0  0  0  0  0  0
  1  2  1  0
  2  3  1  0
  3  4  1  6
  4  5  1  0
  5  6  2  0
  5  7  1  0
  7  8  1  0
  7  9  1  0
  3 10  1  0
 10 11  1  0
 10 12  2  0
M  ISO  4   1   1   8   4   9   5  11   2
M  END
>  <symbol>  (1121) 
HAsn

>  <m_abbr>  (1121) 
HAsn

>  <m_name>  (1121) 
(2S)-2-hydroxy-3-carbamoyl-propanoic acid

>  <m_type>  (1121) 
aa

>  <m_subtype>  (1121) 
depsi

>  <m_Rgroups>  (1121) 
[H],[OH],None,[H],[H]

>  <m_chem_types>  (1121) 
1:backbone_o,2:backbone_c,4:amide_nh,5:amide_nh

>  <m_activation_policy>  (1121) 
canonical-sites-v1

$$$$

     RDKit          2D

 13 12  0  0  0  0  0  0  0  0999 V2000
   -4.4112    0.8898    0.0000 R   0  0  0  0  0  1  0  0  0  0  0  0
   -3.0089    1.4224    0.0000 O   0  0  0  0  0  0  0  0  0  0  0  0
   -1.8465    0.4744    0.0000 C   0  0  0  0  0  0  0  0  0  0  0  0
   -0.4443    1.0071    0.0000 C   0  0  0  0  0  0  0  0  0  0  0  0
    0.7182    0.0590    0.0000 C   0  0  0  0  0  0  0  0  0  0  0  0
    2.1204    0.5917    0.0000 C   0  0  0  0  0  0  0  0  0  0  0  0
    2.3602    2.0724    0.0000 O   0  0  0  0  0  0  0  0  0  0  0  0
    3.2828   -0.3564    0.0000 N   0  0  0  0  0  0  0  0  0  0  0  0
    4.6850    0.1763    0.0000 R   0  0  0  0  0  1  0  0  0  0  0  0
    3.0430   -1.8371    0.0000 R   0  0  0  0  0  1  0  0  0  0  0  0
   -2.0863   -1.0063    0.0000 C   0  0  0  0  0  0  0  0  0  0  0  0
   -0.9239   -1.9544    0.0000 R   0  0  0  0  0  1  0  0  0  0  0  0
   -3.4886   -1.5390    0.0000 O   0  0  0  0  0  0  0  0  0  0  0  0
  1  2  1  0
  2  3  1  0
  3  4  1  6
  4  5  1  0
  5  6  1  0
  6  7  2  0
  6  8  1  0
  8  9  1  0
  8 10  1  0
  3 11  1  0
 11 12  1  0
 11 13  2  0
M  ISO  4   1   1   9   4  10   5  12   2
M  END
>  <symbol>  (1122) 
HGln

>  <m_abbr>  (1122) 
HGln

>  <m_name>  (1122) 
(2S)-2-hydroxy-4-carbamoyl-butanoic acid

>  <m_type>  (1122) 
aa

>  <m_subtype>  (1122) 
depsi

>  <m_Rgroups>  (1122) 
[H],[OH],None,[H],[H]

>  <m_chem_types>  (1122) 
1:backbone_o,2:backbone_c,4:amide_nh,5:amide_nh

>  <m_activation_policy>  (1122) 
canonical-sites-v1

$$$$

     RDKit          2D

 17 16  0  0  0  0  0  0  0  0999 V2000
    5.6013   -0.1292    0.0000 R   0  0  0  0  0  1  0  0  0  0  0  0
    4.4450   -1.0848    0.0000 O   0  0  0  0  0  0  0  0  0  0  0  0
    3.0394   -0.5612    0.0000 C   0  0  0  0  0  0  0  0  0  0  0  0
    1.8831   -1.5168    0.0000 C   0  0  0  0  0  0  0  0  0  0  0  0
    0.4775   -0.9933    0.0000 C   0  0  0  0  0  0  0  0  0  0  0  0
   -0.6788   -1.9488    0.0000 C   0  0  0  0  0  0  0  0  0  0  0  0
   -2.0844   -1.4253    0.0000 N   0  0  0  0  0  0  0  0  0  0  0  0
   -3.2407   -2.3809    0.0000 R   0  0  0  0  0  1  0  0  0  0  0  0
   -2.3339    0.0538    0.0000 C   0  0  0  0  0  0  0  0  0  0  0  0
   -1.1776    1.0094    0.0000 N   0  0  0  0  0  0  0  0  0  0  0  0
   -1.4271    2.4885    0.0000 R   0  0  0  0  0  1  0  0  0  0  0  0
   -3.7395    0.5774    0.0000 N   0  0  0  0  0  0  0  0  0  0  0  0
   -3.9890    2.0565    0.0000 R   0  0  0  0  0  1  0  0  0  0  0  0
   -4.8958   -0.3782    0.0000 R   0  0  0  0  0  1  0  0  0  0  0  0
    2.7899    0.9179    0.0000 C   0  0  0  0  0  0  0  0  0  0  0  0
    1.3843    1.4414    0.0000 R   0  0  0  0  0  1  0  0  0  0  0  0
    3.9462    1.8735    0.0000 O   0  0  0  0  0  0  0  0  0  0  0  0
  1  2  1  0
  2  3  1  0
  3  4  1  6
  4  5  1  0
  5  6  1  0
  6  7  1  0
  7  8  1  0
  7  9  1  0
  9 10  2  3
 10 11  1  0
  9 12  1  0
 12 13  1  0
 12 14  1  0
  3 15  1  0
 15 16  1  0
 15 17  2  0
M  ISO  6   1   1   8   7  11   4  13   5  14   6  16   2
M  END
>  <symbol>  (1123) 
HArg

>  <m_abbr>  (1123) 
HArg

>  <m_name>  (1123) 
(2S)-2-hydroxy-5-guanidinopentanoic acid

>  <m_type>  (1123) 
aa

>  <m_subtype>  (1123) 
depsi

>  <m_Rgroups>  (1123) 
[H],[OH],None,[H],[H],[H],[H]

>  <m_chem_types>  (1123) 
1:backbone_o,2:backbone_c,4:guanidinium_imine,5:guanidinium,6:guanidinium,7:guanidinium

>  <m_activation_policy>  (1123) 
canonical-sites-v1

$$$$

     RDKit          2D

 13 12  0  0  0  0  0  0  0  0999 V2000
   -4.7951    0.9924    0.0000 R   0  0  0  0  0  1  0  0  0  0  0  0
   -3.3767    1.4803    0.0000 O   0  0  0  0  0  0  0  0  0  0  0  0
   -2.2449    0.4958    0.0000 C   0  0  0  0  0  0  0  0  0  0  0  0
   -0.8265    0.9838    0.0000 C   0  0  0  0  0  0  0  0  0  0  0  0
    0.3053   -0.0007    0.0000 C   0  0  0  0  0  0  0  0  0  0  0  0
    1.7237    0.4873    0.0000 C   0  0  0  0  0  0  0  0  0  0  0  0
    2.8555   -0.4972    0.0000 C   0  0  0  0  0  0  0  0  0  0  0  0
    4.2739   -0.0092    0.0000 N   0  0  0  0  0  0  0  0  0  0  0  0
    5.4057   -0.9937    0.0000 R   0  0  0  0  0  1  0  0  0  0  0  0
    4.5606    1.4631    0.0000 R   0  0  0  0  0  1  0  0  0  0  0  0
   -2.5316   -0.9765    0.0000 C   0  0  0  0  0  0  0  0  0  0  0  0
   -1.3998   -1.9609    0.0000 R   0  0  0  0  0  1  0  0  0  0  0  0
   -3.9500   -1.4644    0.0000 O   0  0  0  0  0  0  0  0  0  0  0  0
  1  2  1  0
  2  3  1  0
  3  4  1  6
  4  5  1  0
  5  6  1  0
  6  7  1  0
  7  8  1  0
  8  9  1  0
  8 10  1  0
  3 11  1  0
 11 12  1  0
 11 13  2  0
M  ISO  4   1   1   9   4  10   5  12   2
M  END
>  <symbol>  (1124) 
HLys

>  <m_abbr>  (1124) 
HLys

>  <m_name>  (1124) 
(2S)-2-hydroxy-6-aminohexanoic acid

>  <m_type>  (1124) 
aa

>  <m_subtype>  (1124) 
depsi

>  <m_Rgroups>  (1124) 
[H],[OH],None,[H],[H]

>  <m_chem_types>  (1124) 
1:backbone_o,2:backbone_c,4:amine_primary,5:amine_primary

>  <m_activation_policy>  (1124) 
canonical-sites-v1

$$$$

     RDKit          2D

  6  5  0  0  0  0  0  0  0  0999 V2000
   -2.8748   -0.2197    0.0000 R   0  0  0  0  0  1  0  0  0  0  0  0
   -1.4825    0.3386    0.0000 O   0  0  0  0  0  0  0  0  0  0  0  0
   -0.3029   -0.5880    0.0000 C   0  0  0  0  0  0  0  0  0  0  0  0
    1.0893   -0.0297    0.0000 C   0  0  0  0  0  0  0  0  0  0  0  0
    2.2689   -0.9563    0.0000 R   0  0  0  0  0  1  0  0  0  0  0  0
    1.3020    1.4551    0.0000 O   0  0  0  0  0  0  0  0  0  0  0  0
  1  2  1  0
  2  3  1  0
  3  4  1  0
  4  5  1  0
  4  6  2  0
M  ISO  2   1   1   5   2
M  END
>  <symbol>  (1125) 
Glyc

>  <m_abbr>  (1125) 
Glyc

>  <m_name>  (1125) 
glycolic acid (2-hydroxyacetic acid)

>  <m_type>  (1125) 
aa

>  <m_subtype>  (1125) 
depsi

>  <m_Rgroups>  (1125) 
[H],[OH]

>  <m_chem_types>  (1125) 
1:backbone_o,2:backbone_c

>  <m_activation_policy>  (1125) 
canonical-sites-v1

$$$$

     RDKit          2D

 15 14  0  0  0  0  0  0  0  0999 V2000
   -4.8314   -0.4209    0.0000 R   0  0  0  0  0  1  0  0  0  0  0  0
   -3.4722   -1.0553    0.0000 N   0  0  0  0  0  0  0  0  0  0  0  0
   -3.3421   -2.5496    0.0000 R   0  0  0  0  0  1  0  0  0  0  0  0
   -2.2432   -0.1954    0.0000 C   0  0  0  0  0  0  0  0  0  0  0  0
   -0.8840   -0.8298    0.0000 C   0  0  0  0  0  0  0  0  0  0  0  0
    0.3451    0.0301    0.0000 C   0  0  0  0  0  0  0  0  0  0  0  0
    1.7043   -0.6044    0.0000 C   0  0  0  0  0  0  0  0  0  0  0  0
    2.9334    0.2555    0.0000 N   0  0  0  0  0  0  0  0  0  0  0  0
    2.8032    1.7499    0.0000 O   0  0  0  0  0  0  0  0  0  0  0  0
    4.2926   -0.3789    0.0000 C   0  0  0  0  0  0  0  0  0  0  0  0
    5.5217    0.4810    0.0000 C   0  0  0  0  0  0  0  0  0  0  0  0
    4.4228   -1.8733    0.0000 O   0  0  0  0  0  0  0  0  0  0  0  0
   -2.3733    1.2989    0.0000 C   0  0  0  0  0  0  0  0  0  0  0  0
   -1.1443    2.1588    0.0000 R   0  0  0  0  0  1  0  0  0  0  0  0
   -3.7326    1.9334    0.0000 O   0  0  0  0  0  0  0  0  0  0  0  0
  1  2  1  0
  2  3  1  0
  2  4  1  0
  4  5  1  6
  5  6  1  0
  6  7  1  0
  7  8  1  0
  8  9  1  0
  8 10  1  0
 10 11  1  0
 10 12  2  0
  4 13  1  0
 13 14  1  0
 13 15  2  0
M  CHG  1   9  -1
M  ISO  3   1   1   3   3  14   2
M  END
>  <symbol>  (1126) 
Orn_AcHA

>  <m_abbr>  (1126) 
Orn_AcHA

>  <m_name>  (1126) 
N-delta-acetohydroxamoyl-L-ornithine (siderophore)

>  <m_type>  (1126) 
aa

>  <m_subtype>  (1126) 
modified

>  <m_Rgroups>  (1126) 
[H],[OH],[H]

>  <m_chem_types>  (1126) 
1:backbone_n,2:backbone_c,3:backbone_n_mod

>  <m_activation_policy>  (1126) 
canonical-sites-v1

$$$$

     RDKit          2D

 15 14  0  0  0  0  0  0  0  0999 V2000
   -4.8314   -0.4209    0.0000 R   0  0  0  0  0  1  0  0  0  0  0  0
   -3.4722   -1.0553    0.0000 N   0  0  0  0  0  0  0  0  0  0  0  0
   -3.3421   -2.5496    0.0000 R   0  0  0  0  0  1  0  0  0  0  0  0
   -2.2432   -0.1954    0.0000 C   0  0  0  0  0  0  0  0  0  0  0  0
   -0.8840   -0.8298    0.0000 C   0  0  0  0  0  0  0  0  0  0  0  0
    0.3451    0.0301    0.0000 C   0  0  0  0  0  0  0  0  0  0  0  0
    1.7043   -0.6044    0.0000 C   0  0  0  0  0  0  0  0  0  0  0  0
    2.9334    0.2555    0.0000 N   0  0  0  0  0  0  0  0  0  0  0  0
    2.8032    1.7499    0.0000 O   0  0  0  0  0  0  0  0  0  0  0  0
    4.2926   -0.3789    0.0000 C   0  0  0  0  0  0  0  0  0  0  0  0
    5.5217    0.4810    0.0000 C   0  0  0  0  0  0  0  0  0  0  0  0
    4.4228   -1.8733    0.0000 O   0  0  0  0  0  0  0  0  0  0  0  0
   -2.3733    1.2989    0.0000 C   0  0  0  0  0  0  0  0  0  0  0  0
   -1.1443    2.1588    0.0000 R   0  0  0  0  0  1  0  0  0  0  0  0
   -3.7326    1.9334    0.0000 O   0  0  0  0  0  0  0  0  0  0  0  0
  1  2  1  0
  2  3  1  0
  2  4  1  0
  4  5  1  1
  5  6  1  0
  6  7  1  0
  7  8  1  0
  8  9  1  0
  8 10  1  0
 10 11  1  0
 10 12  2  0
  4 13  1  0
 13 14  1  0
 13 15  2  0
M  CHG  1   9  -1
M  ISO  3   1   1   3   3  14   2
M  END
>  <symbol>  (1127) 
D_Orn_AcHA

>  <m_abbr>  (1127) 
D_Orn_AcHA

>  <m_name>  (1127) 
N-delta-acetohydroxamoyl-D-ornithine (siderophore)

>  <m_type>  (1127) 
aa

>  <m_subtype>  (1127) 
modified

>  <m_Rgroups>  (1127) 
[H],[OH],[H]

>  <m_chem_types>  (1127) 
1:backbone_n,2:backbone_c,3:backbone_n_mod

>  <m_activation_policy>  (1127) 
canonical-sites-v1

$$$$

     RDKit          2D

 16 16  0  0  0  0  0  0  0  0999 V2000
   -5.2605   -1.2559    0.0000 R   0  0  0  0  0  1  0  0  0  0  0  0
   -3.9279   -0.5673    0.0000 N   0  0  0  0  0  0  0  0  0  0  0  0
   -3.8579    0.9310    0.0000 C   0  0  0  0  0  0  0  0  0  0  0  0
   -5.1205    1.7408    0.0000 R   0  0  0  0  0  1  0  0  0  0  0  0
   -2.6652   -1.3771    0.0000 C   0  0  0  0  0  0  0  0  0  0  0  0
   -1.3326   -0.6886    0.0000 C   0  0  0  0  0  0  0  0  0  0  0  0
   -1.2626    0.8098    0.0000 C   0  0  0  0  0  0  0  0  0  0  0  0
    0.0700    1.4984    0.0000 C   0  0  0  0  0  0  0  0  0  0  0  0
    1.3326    0.6886    0.0000 C   0  0  0  0  0  0  0  0  0  0  0  0
    2.6652    1.3771    0.0000 C   0  0  0  0  0  0  0  0  0  0  0  0
    3.9279    0.5673    0.0000 N   0  0  0  0  0  0  0  0  0  0  0  0
    5.2605    1.2559    0.0000 R   0  0  0  0  0  1  0  0  0  0  0  0
    3.8579   -0.9310    0.0000 C   0  0  0  0  0  0  0  0  0  0  0  0
    5.1205   -1.7408    0.0000 R   0  0  0  0  0  1  0  0  0  0  0  0
    1.2626   -0.8098    0.0000 C   0  0  0  0  0  0  0  0  0  0  0  0
   -0.0700   -1.4984    0.0000 C   0  0  0  0  0  0  0  0  0  0  0  0
  1  2  1  0
  2  3  1  0
  3  4  1  0
  2  5  1  0
  5  6  1  0
  6  7  1  0
  7  8  2  0
  8  9  1  0
  9 10  1  0
 10 11  1  0
 11 12  1  0
 11 13  1  0
 13 14  1  0
  9 15  2  0
 15 16  1  0
 16  6  2  0
M  ISO  4   1   1   4   2  12   5  14   4
M  END
>  <symbol>  (1128) 
XylBridge

>  <m_abbr>  (1128) 
XylBridge

>  <m_name>  (1128) 
para-xylylene diamine 4-arm bridge

>  <m_type>  (1128) 
aa

>  <m_subtype>  (1128) 
modified

>  <m_Rgroups>  (1128) 
[H],[H],None,[H],[H]

>  <m_chem_types>  (1128) 
1:backbone_n,2:backbone_c_red,4:backbone_c_red,5:backbone_n

>  <m_activation_policy>  (1128) 
canonical-sites-v1

$$$$
